
---------- Begin Simulation Statistics ----------
final_tick                                 1990023500                       # Number of ticks from beginning of simulation (restored from checkpoints and never reset)
host_inst_rate                                 117281                       # Simulator instruction rate (inst/s)
host_mem_usage                                 726120                       # Number of bytes of host memory used
host_op_rate                                   215738                       # Simulator op (including micro ops) rate (op/s)
host_seconds                                    32.63                       # Real time elapsed on the host
host_tick_rate                               60984480                       # Simulator tick rate (ticks/s)
sim_freq                                 1000000000000                       # Frequency of simulated ticks
sim_insts                                     3827050                       # Number of instructions simulated
sim_ops                                       7039885                       # Number of ops (including micro ops) simulated
sim_seconds                                  0.001990                       # Number of seconds simulated
sim_ticks                                  1990023500                       # Number of ticks simulated
system.cpu.cc_regfile_reads                   5089638                       # number of cc regfile reads
system.cpu.cc_regfile_writes                  3575392                       # number of cc regfile writes
system.cpu.committedInsts                     3827050                       # Number of Instructions Simulated
system.cpu.committedOps                       7039885                       # Number of Ops (including micro ops) Simulated
system.cpu.cpi                               1.039978                       # CPI: Cycles Per Instruction
system.cpu.cpi_total                         1.039978                       # CPI: Total CPI of All Threads
system.cpu.fp_regfile_reads                    216556                       # number of floating regfile reads
system.cpu.fp_regfile_writes                   142753                       # number of floating regfile writes
system.cpu.idleCycles                          128498                       # Total number of cycles that the CPU has spent unscheduled due to idling
system.cpu.iew.branchMispredicts                83853                       # Number of branch mispredicts detected at execute
system.cpu.iew.exec_branches                   979867                       # Number of branches executed
system.cpu.iew.exec_nop                             0                       # number of nop insts executed
system.cpu.iew.exec_rate                     2.305615                       # Inst execution rate
system.cpu.iew.exec_refs                      1564079                       # number of memory reference insts executed
system.cpu.iew.exec_stores                     485998                       # Number of stores executed
system.cpu.iew.exec_swp                             0                       # number of swp insts executed
system.cpu.iew.iewBlockCycles                  379410                       # Number of cycles IEW is blocking
system.cpu.iew.iewDispLoadInsts               1217213                       # Number of dispatched load instructions
system.cpu.iew.iewDispNonSpecInsts                234                       # Number of dispatched non-speculative instructions
system.cpu.iew.iewDispSquashedInsts              8630                       # Number of squashed instructions skipped by dispatch
system.cpu.iew.iewDispStoreInsts               620703                       # Number of dispatched store instructions
system.cpu.iew.iewDispatchedInsts            10337764                       # Number of instructions dispatched to IQ
system.cpu.iew.iewExecLoadInsts               1078081                       # Number of load instructions executed
system.cpu.iew.iewExecSquashedInsts            172463                       # Number of squashed instructions skipped in execute
system.cpu.iew.iewExecutedInsts               9176460                       # Number of executed instructions
system.cpu.iew.iewIQFullEvents                   4375                       # Number of times the IQ has become full, causing a stall
system.cpu.iew.iewIdleCycles                        0                       # Number of cycles IEW is idle
system.cpu.iew.iewLSQFullEvents                 94078                       # Number of times the LSQ has become full, causing a stall
system.cpu.iew.iewSquashCycles                  80132                       # Number of cycles IEW is squashing
system.cpu.iew.iewUnblockCycles                 99550                       # Number of cycles IEW is unblocking
system.cpu.iew.memOrderViolationEvents            332                       # Number of memory order violations
system.cpu.iew.predictedNotTakenIncorrect        46613                       # Number of branches that were predicted not taken incorrectly
system.cpu.iew.predictedTakenIncorrect          37240                       # Number of branches that were predicted taken incorrectly
system.cpu.iew.wb_consumers                  12933693                       # num instructions consuming a value
system.cpu.iew.wb_count                       9066288                       # cumulative count of insts written-back
system.cpu.iew.wb_fanout                     0.532123                       # average fanout of values written-back
system.cpu.iew.wb_producers                   6882314                       # num instructions producing a value
system.cpu.iew.wb_rate                       2.277934                       # insts written-back per cycle
system.cpu.iew.wb_sent                        9124905                       # cumulative count of insts sent to commit
system.cpu.int_regfile_reads                 15169852                       # number of integer regfile reads
system.cpu.int_regfile_writes                 8739666                       # number of integer regfile writes
system.cpu.ipc                               0.961559                       # IPC: Instructions Per Cycle
system.cpu.ipc_total                         0.961559                       # IPC: Total IPC of All Threads
system.cpu.iq.FU_type_0::No_OpClass            181803      1.94%      1.94% # Type of FU issued
system.cpu.iq.FU_type_0::IntAlu               6850853     73.28%     75.22% # Type of FU issued
system.cpu.iq.FU_type_0::IntMult                20544      0.22%     75.44% # Type of FU issued
system.cpu.iq.FU_type_0::IntDiv                632009      6.76%     82.20% # Type of FU issued
system.cpu.iq.FU_type_0::FloatAdd                1297      0.01%     82.22% # Type of FU issued
system.cpu.iq.FU_type_0::FloatCmp                   0      0.00%     82.22% # Type of FU issued
system.cpu.iq.FU_type_0::FloatCvt                   0      0.00%     82.22% # Type of FU issued
system.cpu.iq.FU_type_0::FloatMult                  0      0.00%     82.22% # Type of FU issued
system.cpu.iq.FU_type_0::FloatMultAcc               0      0.00%     82.22% # Type of FU issued
system.cpu.iq.FU_type_0::FloatDiv                   0      0.00%     82.22% # Type of FU issued
system.cpu.iq.FU_type_0::FloatMisc                  0      0.00%     82.22% # Type of FU issued
system.cpu.iq.FU_type_0::FloatSqrt                  0      0.00%     82.22% # Type of FU issued
system.cpu.iq.FU_type_0::SimdAdd                 2446      0.03%     82.24% # Type of FU issued
system.cpu.iq.FU_type_0::SimdAddAcc                 0      0.00%     82.24% # Type of FU issued
system.cpu.iq.FU_type_0::SimdAlu                31182      0.33%     82.58% # Type of FU issued
system.cpu.iq.FU_type_0::SimdCmp                    0      0.00%     82.58% # Type of FU issued
system.cpu.iq.FU_type_0::SimdCvt                12004      0.13%     82.71% # Type of FU issued
system.cpu.iq.FU_type_0::SimdMisc                8680      0.09%     82.80% # Type of FU issued
system.cpu.iq.FU_type_0::SimdMult                   0      0.00%     82.80% # Type of FU issued
system.cpu.iq.FU_type_0::SimdMultAcc                0      0.00%     82.80% # Type of FU issued
system.cpu.iq.FU_type_0::SimdShift               1232      0.01%     82.81% # Type of FU issued
system.cpu.iq.FU_type_0::SimdShiftAcc               0      0.00%     82.81% # Type of FU issued
system.cpu.iq.FU_type_0::SimdDiv                    0      0.00%     82.81% # Type of FU issued
system.cpu.iq.FU_type_0::SimdSqrt                   0      0.00%     82.81% # Type of FU issued
system.cpu.iq.FU_type_0::SimdFloatAdd              16      0.00%     82.81% # Type of FU issued
system.cpu.iq.FU_type_0::SimdFloatAlu               0      0.00%     82.81% # Type of FU issued
system.cpu.iq.FU_type_0::SimdFloatCmp               0      0.00%     82.81% # Type of FU issued
system.cpu.iq.FU_type_0::SimdFloatCvt             549      0.01%     82.82% # Type of FU issued
system.cpu.iq.FU_type_0::SimdFloatDiv             270      0.00%     82.82% # Type of FU issued
system.cpu.iq.FU_type_0::SimdFloatMisc              0      0.00%     82.82% # Type of FU issued
system.cpu.iq.FU_type_0::SimdFloatMult              0      0.00%     82.82% # Type of FU issued
system.cpu.iq.FU_type_0::SimdFloatMultAcc            0      0.00%     82.82% # Type of FU issued
system.cpu.iq.FU_type_0::SimdFloatSqrt              0      0.00%     82.82% # Type of FU issued
system.cpu.iq.FU_type_0::SimdReduceAdd              0      0.00%     82.82% # Type of FU issued
system.cpu.iq.FU_type_0::SimdReduceAlu              0      0.00%     82.82% # Type of FU issued
system.cpu.iq.FU_type_0::SimdReduceCmp              0      0.00%     82.82% # Type of FU issued
system.cpu.iq.FU_type_0::SimdFloatReduceAdd            0      0.00%     82.82% # Type of FU issued
system.cpu.iq.FU_type_0::SimdFloatReduceCmp            0      0.00%     82.82% # Type of FU issued
system.cpu.iq.FU_type_0::SimdAes                    0      0.00%     82.82% # Type of FU issued
system.cpu.iq.FU_type_0::SimdAesMix                 0      0.00%     82.82% # Type of FU issued
system.cpu.iq.FU_type_0::SimdSha1Hash               0      0.00%     82.82% # Type of FU issued
system.cpu.iq.FU_type_0::SimdSha1Hash2              0      0.00%     82.82% # Type of FU issued
system.cpu.iq.FU_type_0::SimdSha256Hash             0      0.00%     82.82% # Type of FU issued
system.cpu.iq.FU_type_0::SimdSha256Hash2            0      0.00%     82.82% # Type of FU issued
system.cpu.iq.FU_type_0::SimdShaSigma2              0      0.00%     82.82% # Type of FU issued
system.cpu.iq.FU_type_0::SimdShaSigma3              0      0.00%     82.82% # Type of FU issued
system.cpu.iq.FU_type_0::SimdPredAlu                0      0.00%     82.82% # Type of FU issued
system.cpu.iq.FU_type_0::MemRead              1027421     10.99%     93.81% # Type of FU issued
system.cpu.iq.FU_type_0::MemWrite              448540      4.80%     98.61% # Type of FU issued
system.cpu.iq.FU_type_0::FloatMemRead           76802      0.82%     99.43% # Type of FU issued
system.cpu.iq.FU_type_0::FloatMemWrite          53275      0.57%    100.00% # Type of FU issued
system.cpu.iq.FU_type_0::IprAccess                  0      0.00%    100.00% # Type of FU issued
system.cpu.iq.FU_type_0::InstPrefetch               0      0.00%    100.00% # Type of FU issued
system.cpu.iq.FU_type_0::total                9348923                       # Type of FU issued
system.cpu.iq.fp_alu_accesses                  226972                       # Number of floating point alu accesses
system.cpu.iq.fp_inst_queue_reads              436057                       # Number of floating instruction queue reads
system.cpu.iq.fp_inst_queue_wakeup_accesses       195406                       # Number of floating instruction queue wakeup accesses
system.cpu.iq.fp_inst_queue_writes             354538                       # Number of floating instruction queue writes
system.cpu.iq.fu_busy_cnt                      140097                       # FU busy when requested
system.cpu.iq.fu_busy_rate                   0.014985                       # FU busy rate (busy events/executed inst)
system.cpu.iq.fu_full::No_OpClass                   0      0.00%      0.00% # attempts to use FU when none available
system.cpu.iq.fu_full::IntAlu                  112019     79.96%     79.96% # attempts to use FU when none available
system.cpu.iq.fu_full::IntMult                      0      0.00%     79.96% # attempts to use FU when none available
system.cpu.iq.fu_full::IntDiv                       0      0.00%     79.96% # attempts to use FU when none available
system.cpu.iq.fu_full::FloatAdd                     0      0.00%     79.96% # attempts to use FU when none available
system.cpu.iq.fu_full::FloatCmp                     0      0.00%     79.96% # attempts to use FU when none available
system.cpu.iq.fu_full::FloatCvt                     0      0.00%     79.96% # attempts to use FU when none available
system.cpu.iq.fu_full::FloatMult                    0      0.00%     79.96% # attempts to use FU when none available
system.cpu.iq.fu_full::FloatMultAcc                 0      0.00%     79.96% # attempts to use FU when none available
system.cpu.iq.fu_full::FloatDiv                     0      0.00%     79.96% # attempts to use FU when none available
system.cpu.iq.fu_full::FloatMisc                    0      0.00%     79.96% # attempts to use FU when none available
system.cpu.iq.fu_full::FloatSqrt                    0      0.00%     79.96% # attempts to use FU when none available
system.cpu.iq.fu_full::SimdAdd                      0      0.00%     79.96% # attempts to use FU when none available
system.cpu.iq.fu_full::SimdAddAcc                   0      0.00%     79.96% # attempts to use FU when none available
system.cpu.iq.fu_full::SimdAlu                    426      0.30%     80.26% # attempts to use FU when none available
system.cpu.iq.fu_full::SimdCmp                      0      0.00%     80.26% # attempts to use FU when none available
system.cpu.iq.fu_full::SimdCvt                     40      0.03%     80.29% # attempts to use FU when none available
system.cpu.iq.fu_full::SimdMisc                    66      0.05%     80.34% # attempts to use FU when none available
system.cpu.iq.fu_full::SimdMult                     0      0.00%     80.34% # attempts to use FU when none available
system.cpu.iq.fu_full::SimdMultAcc                  0      0.00%     80.34% # attempts to use FU when none available
system.cpu.iq.fu_full::SimdShift                    0      0.00%     80.34% # attempts to use FU when none available
system.cpu.iq.fu_full::SimdShiftAcc                 0      0.00%     80.34% # attempts to use FU when none available
system.cpu.iq.fu_full::SimdDiv                      0      0.00%     80.34% # attempts to use FU when none available
system.cpu.iq.fu_full::SimdSqrt                     0      0.00%     80.34% # attempts to use FU when none available
system.cpu.iq.fu_full::SimdFloatAdd                 0      0.00%     80.34% # attempts to use FU when none available
system.cpu.iq.fu_full::SimdFloatAlu                 0      0.00%     80.34% # attempts to use FU when none available
system.cpu.iq.fu_full::SimdFloatCmp                 0      0.00%     80.34% # attempts to use FU when none available
system.cpu.iq.fu_full::SimdFloatCvt                 0      0.00%     80.34% # attempts to use FU when none available
system.cpu.iq.fu_full::SimdFloatDiv                 0      0.00%     80.34% # attempts to use FU when none available
system.cpu.iq.fu_full::SimdFloatMisc                0      0.00%     80.34% # attempts to use FU when none available
system.cpu.iq.fu_full::SimdFloatMult                0      0.00%     80.34% # attempts to use FU when none available
system.cpu.iq.fu_full::SimdFloatMultAcc             0      0.00%     80.34% # attempts to use FU when none available
system.cpu.iq.fu_full::SimdFloatSqrt                0      0.00%     80.34% # attempts to use FU when none available
system.cpu.iq.fu_full::SimdReduceAdd                0      0.00%     80.34% # attempts to use FU when none available
system.cpu.iq.fu_full::SimdReduceAlu                0      0.00%     80.34% # attempts to use FU when none available
system.cpu.iq.fu_full::SimdReduceCmp                0      0.00%     80.34% # attempts to use FU when none available
system.cpu.iq.fu_full::SimdFloatReduceAdd            0      0.00%     80.34% # attempts to use FU when none available
system.cpu.iq.fu_full::SimdFloatReduceCmp            0      0.00%     80.34% # attempts to use FU when none available
system.cpu.iq.fu_full::SimdAes                      0      0.00%     80.34% # attempts to use FU when none available
system.cpu.iq.fu_full::SimdAesMix                   0      0.00%     80.34% # attempts to use FU when none available
system.cpu.iq.fu_full::SimdSha1Hash                 0      0.00%     80.34% # attempts to use FU when none available
system.cpu.iq.fu_full::SimdSha1Hash2                0      0.00%     80.34% # attempts to use FU when none available
system.cpu.iq.fu_full::SimdSha256Hash               0      0.00%     80.34% # attempts to use FU when none available
system.cpu.iq.fu_full::SimdSha256Hash2              0      0.00%     80.34% # attempts to use FU when none available
system.cpu.iq.fu_full::SimdShaSigma2                0      0.00%     80.34% # attempts to use FU when none available
system.cpu.iq.fu_full::SimdShaSigma3                0      0.00%     80.34% # attempts to use FU when none available
system.cpu.iq.fu_full::SimdPredAlu                  0      0.00%     80.34% # attempts to use FU when none available
system.cpu.iq.fu_full::MemRead                   3811      2.72%     83.06% # attempts to use FU when none available
system.cpu.iq.fu_full::MemWrite                  5026      3.59%     86.65% # attempts to use FU when none available
system.cpu.iq.fu_full::FloatMemRead             12716      9.08%     95.72% # attempts to use FU when none available
system.cpu.iq.fu_full::FloatMemWrite             5993      4.28%    100.00% # attempts to use FU when none available
system.cpu.iq.fu_full::IprAccess                    0      0.00%    100.00% # attempts to use FU when none available
system.cpu.iq.fu_full::InstPrefetch                 0      0.00%    100.00% # attempts to use FU when none available
system.cpu.iq.int_alu_accesses                9080245                       # Number of integer alu accesses
system.cpu.iq.int_inst_queue_reads           22271523                       # Number of integer instruction queue reads
system.cpu.iq.int_inst_queue_wakeup_accesses      8870882                       # Number of integer instruction queue wakeup accesses
system.cpu.iq.int_inst_queue_writes          13281396                       # Number of integer instruction queue writes
system.cpu.iq.iqInstsAdded                   10335084                       # Number of instructions added to the IQ (excludes non-spec)
system.cpu.iq.iqInstsIssued                   9348923                       # Number of instructions issued
system.cpu.iq.iqNonSpecInstsAdded                2680                       # Number of non-speculative instructions added to the IQ
system.cpu.iq.iqSquashedInstsExamined         3297873                       # Number of squashed instructions iterated over during squash; mainly for profiling
system.cpu.iq.iqSquashedInstsIssued             18087                       # Number of squashed instructions issued
system.cpu.iq.iqSquashedNonSpecRemoved           2465                       # Number of squashed non-spec instructions that were removed
system.cpu.iq.iqSquashedOperandsExamined      4196281                       # Number of squashed operands that are examined and possibly removed from graph
system.cpu.iq.issued_per_cycle::samples       3851550                       # Number of insts issued each cycle
system.cpu.iq.issued_per_cycle::mean         2.427314                       # Number of insts issued each cycle
system.cpu.iq.issued_per_cycle::stdev        2.376787                       # Number of insts issued each cycle
system.cpu.iq.issued_per_cycle::underflows            0      0.00%      0.00% # Number of insts issued each cycle
system.cpu.iq.issued_per_cycle::0             1364868     35.44%     35.44% # Number of insts issued each cycle
system.cpu.iq.issued_per_cycle::1              318179      8.26%     43.70% # Number of insts issued each cycle
system.cpu.iq.issued_per_cycle::2              463701     12.04%     55.74% # Number of insts issued each cycle
system.cpu.iq.issued_per_cycle::3              447463     11.62%     67.35% # Number of insts issued each cycle
system.cpu.iq.issued_per_cycle::4              400509     10.40%     77.75% # Number of insts issued each cycle
system.cpu.iq.issued_per_cycle::5              309100      8.03%     85.78% # Number of insts issued each cycle
system.cpu.iq.issued_per_cycle::6              293231      7.61%     93.39% # Number of insts issued each cycle
system.cpu.iq.issued_per_cycle::7              181961      4.72%     98.12% # Number of insts issued each cycle
system.cpu.iq.issued_per_cycle::8               72538      1.88%    100.00% # Number of insts issued each cycle
system.cpu.iq.issued_per_cycle::overflows            0      0.00%    100.00% # Number of insts issued each cycle
system.cpu.iq.issued_per_cycle::min_value            0                       # Number of insts issued each cycle
system.cpu.iq.issued_per_cycle::max_value            8                       # Number of insts issued each cycle
system.cpu.iq.issued_per_cycle::total         3851550                       # Number of insts issued each cycle
system.cpu.iq.rate                           2.348947                       # Inst issue rate
system.cpu.iq.vec_alu_accesses                      0                       # Number of vector alu accesses
system.cpu.iq.vec_inst_queue_reads                  0                       # Number of vector instruction queue reads
system.cpu.iq.vec_inst_queue_wakeup_accesses            0                       # Number of vector instruction queue wakeup accesses
system.cpu.iq.vec_inst_queue_writes                 0                       # Number of vector instruction queue writes
system.cpu.memDep0.conflictingLoads            219664                       # Number of conflicting loads.
system.cpu.memDep0.conflictingStores           149071                       # Number of conflicting stores.
system.cpu.memDep0.insertedLoads              1217213                       # Number of loads inserted to the mem dependence unit.
system.cpu.memDep0.insertedStores              620703                       # Number of stores inserted to the mem dependence unit.
system.cpu.misc_regfile_reads                 3401333                       # number of misc regfile reads
system.cpu.numCycles                          3980048                       # number of cpu cycles simulated
system.cpu.numWorkItemsCompleted                    0                       # number of work items this cpu completed
system.cpu.numWorkItemsStarted                      0                       # number of work items this cpu started
system.cpu.timesIdled                            1696                       # Number of times that the entire CPU went into an idle state and unscheduled itself
system.cpu.workload.numSyscalls                   419                       # Number of system calls
system.membus.snoop_filter.hit_multi_requests            0                       # Number of requests hitting in the snoop filter with multiple (>1) holders of the requested data.
system.membus.snoop_filter.hit_multi_snoops            0                       # Number of snoops hitting in the snoop filter with multiple (>1) holders of the requested data.
system.membus.snoop_filter.hit_single_requests          216                       # Number of requests hitting in the snoop filter with a single holder of the requested data.
system.membus.snoop_filter.hit_single_snoops            0                       # Number of snoops hitting in the snoop filter with a single holder of the requested data.
system.membus.snoop_filter.tot_requests          5080                       # Total number of requests made to the snoop filter.
system.membus.snoop_filter.tot_snoops               0                       # Total number of snoops made to the snoop filter.
system.tol2bus.snoop_filter.hit_multi_requests            5                       # Number of requests hitting in the snoop filter with multiple (>1) holders of the requested data.
system.tol2bus.snoop_filter.hit_multi_snoops            0                       # Number of snoops hitting in the snoop filter with multiple (>1) holders of the requested data.
system.tol2bus.snoop_filter.hit_single_requests        25850                       # Number of requests hitting in the snoop filter with a single holder of the requested data.
system.tol2bus.snoop_filter.hit_single_snoops          136                       # Number of snoops hitting in the snoop filter with a single holder of the requested data.
system.tol2bus.snoop_filter.tot_requests        52725                       # Total number of requests made to the snoop filter.
system.tol2bus.snoop_filter.tot_snoops            136                       # Total number of snoops made to the snoop filter.
system.membus.trans_dist::ReadResp               2053                       # Transaction distribution
system.membus.trans_dist::WritebackDirty           34                       # Transaction distribution
system.membus.trans_dist::CleanEvict              182                       # Transaction distribution
system.membus.trans_dist::ReadExReq              2811                       # Transaction distribution
system.membus.trans_dist::ReadExResp             2811                       # Transaction distribution
system.membus.trans_dist::ReadSharedReq          2053                       # Transaction distribution
system.membus.pkt_count_system.l2.mem_side_port::system.mem_ctrls.port         9944                       # Packet count per connected requestor and responder (bytes)
system.membus.pkt_count_system.l2.mem_side_port::total         9944                       # Packet count per connected requestor and responder (bytes)
system.membus.pkt_count::total                   9944                       # Packet count per connected requestor and responder (bytes)
system.membus.pkt_size_system.l2.mem_side_port::system.mem_ctrls.port       313472                       # Cumulative packet size per connected requestor and responder (bytes)
system.membus.pkt_size_system.l2.mem_side_port::total       313472                       # Cumulative packet size per connected requestor and responder (bytes)
system.membus.pkt_size::total                  313472                       # Cumulative packet size per connected requestor and responder (bytes)
system.membus.snoops                                0                       # Total snoops (count)
system.membus.snoopTraffic                          0                       # Total snoop traffic (bytes)
system.membus.snoop_fanout::samples              4864                       # Request fanout histogram
system.membus.snoop_fanout::mean                    0                       # Request fanout histogram
system.membus.snoop_fanout::stdev                   0                       # Request fanout histogram
system.membus.snoop_fanout::underflows              0      0.00%      0.00% # Request fanout histogram
system.membus.snoop_fanout::0                    4864    100.00%    100.00% # Request fanout histogram
system.membus.snoop_fanout::1                       0      0.00%    100.00% # Request fanout histogram
system.membus.snoop_fanout::overflows               0      0.00%    100.00% # Request fanout histogram
system.membus.snoop_fanout::min_value               0                       # Request fanout histogram
system.membus.snoop_fanout::max_value               0                       # Request fanout histogram
system.membus.snoop_fanout::total                4864                       # Request fanout histogram
system.membus.reqLayer2.occupancy             6249500                       # Layer occupancy (ticks)
system.membus.reqLayer2.utilization               0.3                       # Layer utilization (%)
system.membus.respLayer1.occupancy           25757750                       # Layer occupancy (ticks)
system.membus.respLayer1.utilization              1.3                       # Layer utilization (%)
system.membus.power_state.pwrStateResidencyTicks::UNDEFINED   1990023500                       # Cumulative time (in ticks) in various power states
system.tol2bus.trans_dist::ReadResp             17947                       # Transaction distribution
system.tol2bus.trans_dist::WritebackDirty        21543                       # Transaction distribution
system.tol2bus.trans_dist::WritebackClean         3808                       # Transaction distribution
system.tol2bus.trans_dist::CleanEvict             844                       # Transaction distribution
system.tol2bus.trans_dist::ReadExReq             8927                       # Transaction distribution
system.tol2bus.trans_dist::ReadExResp            8927                       # Transaction distribution
system.tol2bus.trans_dist::ReadCleanReq          4321                       # Transaction distribution
system.tol2bus.trans_dist::ReadSharedReq        13627                       # Transaction distribution
system.tol2bus.pkt_count_system.cpu.icache.mem_side_port::system.l2.cpu_side_port        12449                       # Packet count per connected requestor and responder (bytes)
system.tol2bus.pkt_count_system.cpu.dcache.mem_side_port::system.l2.cpu_side_port        67150                       # Packet count per connected requestor and responder (bytes)
system.tol2bus.pkt_count::total                 79599                       # Packet count per connected requestor and responder (bytes)
system.tol2bus.pkt_size_system.cpu.icache.mem_side_port::system.l2.cpu_side_port       520192                       # Cumulative packet size per connected requestor and responder (bytes)
system.tol2bus.pkt_size_system.cpu.dcache.mem_side_port::system.l2.cpu_side_port      2820032                       # Cumulative packet size per connected requestor and responder (bytes)
system.tol2bus.pkt_size::total                3340224                       # Cumulative packet size per connected requestor and responder (bytes)
system.tol2bus.snoops                             345                       # Total snoops (count)
system.tol2bus.snoopTraffic                      2176                       # Total snoop traffic (bytes)
system.tol2bus.snoop_fanout::samples            27220                       # Request fanout histogram
system.tol2bus.snoop_fanout::mean            0.005180                       # Request fanout histogram
system.tol2bus.snoop_fanout::stdev           0.071787                       # Request fanout histogram
system.tol2bus.snoop_fanout::underflows             0      0.00%      0.00% # Request fanout histogram
system.tol2bus.snoop_fanout::0                  27079     99.48%     99.48% # Request fanout histogram
system.tol2bus.snoop_fanout::1                    141      0.52%    100.00% # Request fanout histogram
system.tol2bus.snoop_fanout::2                      0      0.00%    100.00% # Request fanout histogram
system.tol2bus.snoop_fanout::3                      0      0.00%    100.00% # Request fanout histogram
system.tol2bus.snoop_fanout::4                      0      0.00%    100.00% # Request fanout histogram
system.tol2bus.snoop_fanout::overflows              0      0.00%    100.00% # Request fanout histogram
system.tol2bus.snoop_fanout::min_value              0                       # Request fanout histogram
system.tol2bus.snoop_fanout::max_value              1                       # Request fanout histogram
system.tol2bus.snoop_fanout::total              27220                       # Request fanout histogram
system.tol2bus.reqLayer0.occupancy           51679500                       # Layer occupancy (ticks)
system.tol2bus.reqLayer0.utilization              2.6                       # Layer utilization (%)
system.tol2bus.respLayer1.occupancy          33831998                       # Layer occupancy (ticks)
system.tol2bus.respLayer1.utilization             1.7                       # Layer utilization (%)
system.tol2bus.respLayer0.occupancy           6481497                       # Layer occupancy (ticks)
system.tol2bus.respLayer0.utilization             0.3                       # Layer utilization (%)
system.tol2bus.power_state.pwrStateResidencyTicks::UNDEFINED   1990023500                       # Cumulative time (in ticks) in various power states
system.voltage_domain.voltage                       1                       # Voltage in Volts
system.clk_domain.clock                          1000                       # Clock period in ticks
system.l2.demand_hits::.cpu.inst                 2541                       # number of demand (read+write) hits
system.l2.demand_hits::.cpu.data                19468                       # number of demand (read+write) hits
system.l2.demand_hits::total                    22009                       # number of demand (read+write) hits
system.l2.overall_hits::.cpu.inst                2541                       # number of overall hits
system.l2.overall_hits::.cpu.data               19468                       # number of overall hits
system.l2.overall_hits::total                   22009                       # number of overall hits
system.l2.demand_misses::.cpu.inst               1780                       # number of demand (read+write) misses
system.l2.demand_misses::.cpu.data               3086                       # number of demand (read+write) misses
system.l2.demand_misses::total                   4866                       # number of demand (read+write) misses
system.l2.overall_misses::.cpu.inst              1780                       # number of overall misses
system.l2.overall_misses::.cpu.data              3086                       # number of overall misses
system.l2.overall_misses::total                  4866                       # number of overall misses
system.l2.demand_miss_latency::.cpu.inst    140631000                       # number of demand (read+write) miss cycles
system.l2.demand_miss_latency::.cpu.data    234628000                       # number of demand (read+write) miss cycles
system.l2.demand_miss_latency::total        375259000                       # number of demand (read+write) miss cycles
system.l2.overall_miss_latency::.cpu.inst    140631000                       # number of overall miss cycles
system.l2.overall_miss_latency::.cpu.data    234628000                       # number of overall miss cycles
system.l2.overall_miss_latency::total       375259000                       # number of overall miss cycles
system.l2.demand_accesses::.cpu.inst             4321                       # number of demand (read+write) accesses
system.l2.demand_accesses::.cpu.data            22554                       # number of demand (read+write) accesses
system.l2.demand_accesses::total                26875                       # number of demand (read+write) accesses
system.l2.overall_accesses::.cpu.inst            4321                       # number of overall (read+write) accesses
system.l2.overall_accesses::.cpu.data           22554                       # number of overall (read+write) accesses
system.l2.overall_accesses::total               26875                       # number of overall (read+write) accesses
system.l2.demand_miss_rate::.cpu.inst        0.411942                       # miss rate for demand accesses
system.l2.demand_miss_rate::.cpu.data        0.136827                       # miss rate for demand accesses
system.l2.demand_miss_rate::total            0.181060                       # miss rate for demand accesses
system.l2.overall_miss_rate::.cpu.inst       0.411942                       # miss rate for overall accesses
system.l2.overall_miss_rate::.cpu.data       0.136827                       # miss rate for overall accesses
system.l2.overall_miss_rate::total           0.181060                       # miss rate for overall accesses
system.l2.demand_avg_miss_latency::.cpu.inst 79006.179775                       # average overall miss latency
system.l2.demand_avg_miss_latency::.cpu.data 76029.812054                       # average overall miss latency
system.l2.demand_avg_miss_latency::total 77118.577887                       # average overall miss latency
system.l2.overall_avg_miss_latency::.cpu.inst 79006.179775                       # average overall miss latency
system.l2.overall_avg_miss_latency::.cpu.data 76029.812054                       # average overall miss latency
system.l2.overall_avg_miss_latency::total 77118.577887                       # average overall miss latency
system.l2.blocked_cycles::no_mshrs                  0                       # number of cycles access was blocked
system.l2.blocked_cycles::no_targets                0                       # number of cycles access was blocked
system.l2.blocked::no_mshrs                         0                       # number of cycles access was blocked
system.l2.blocked::no_targets                       0                       # number of cycles access was blocked
system.l2.avg_blocked_cycles::no_mshrs            nan                       # average number of cycles each access was blocked
system.l2.avg_blocked_cycles::no_targets          nan                       # average number of cycles each access was blocked
system.l2.writebacks::.writebacks                  34                       # number of writebacks
system.l2.writebacks::total                        34                       # number of writebacks
system.l2.demand_mshr_hits::.cpu.data               1                       # number of demand (read+write) MSHR hits
system.l2.demand_mshr_hits::total                   1                       # number of demand (read+write) MSHR hits
system.l2.overall_mshr_hits::.cpu.data              1                       # number of overall MSHR hits
system.l2.overall_mshr_hits::total                  1                       # number of overall MSHR hits
system.l2.demand_mshr_misses::.cpu.inst          1780                       # number of demand (read+write) MSHR misses
system.l2.demand_mshr_misses::.cpu.data          3085                       # number of demand (read+write) MSHR misses
system.l2.demand_mshr_misses::total              4865                       # number of demand (read+write) MSHR misses
system.l2.overall_mshr_misses::.cpu.inst         1780                       # number of overall MSHR misses
system.l2.overall_mshr_misses::.cpu.data         3085                       # number of overall MSHR misses
system.l2.overall_mshr_misses::total             4865                       # number of overall MSHR misses
system.l2.demand_mshr_miss_latency::.cpu.inst    122841000                       # number of demand (read+write) MSHR miss cycles
system.l2.demand_mshr_miss_latency::.cpu.data    203683500                       # number of demand (read+write) MSHR miss cycles
system.l2.demand_mshr_miss_latency::total    326524500                       # number of demand (read+write) MSHR miss cycles
system.l2.overall_mshr_miss_latency::.cpu.inst    122841000                       # number of overall MSHR miss cycles
system.l2.overall_mshr_miss_latency::.cpu.data    203683500                       # number of overall MSHR miss cycles
system.l2.overall_mshr_miss_latency::total    326524500                       # number of overall MSHR miss cycles
system.l2.demand_mshr_miss_rate::.cpu.inst     0.411942                       # mshr miss rate for demand accesses
system.l2.demand_mshr_miss_rate::.cpu.data     0.136783                       # mshr miss rate for demand accesses
system.l2.demand_mshr_miss_rate::total       0.181023                       # mshr miss rate for demand accesses
system.l2.overall_mshr_miss_rate::.cpu.inst     0.411942                       # mshr miss rate for overall accesses
system.l2.overall_mshr_miss_rate::.cpu.data     0.136783                       # mshr miss rate for overall accesses
system.l2.overall_mshr_miss_rate::total      0.181023                       # mshr miss rate for overall accesses
system.l2.demand_avg_mshr_miss_latency::.cpu.inst 69011.797753                       # average overall mshr miss latency
system.l2.demand_avg_mshr_miss_latency::.cpu.data 66023.824959                       # average overall mshr miss latency
system.l2.demand_avg_mshr_miss_latency::total 67117.060637                       # average overall mshr miss latency
system.l2.overall_avg_mshr_miss_latency::.cpu.inst 69011.797753                       # average overall mshr miss latency
system.l2.overall_avg_mshr_miss_latency::.cpu.data 66023.824959                       # average overall mshr miss latency
system.l2.overall_avg_mshr_miss_latency::total 67117.060637                       # average overall mshr miss latency
system.l2.replacements                            345                       # number of replacements
system.l2.WritebackDirty_hits::.writebacks        21509                       # number of WritebackDirty hits
system.l2.WritebackDirty_hits::total            21509                       # number of WritebackDirty hits
system.l2.WritebackDirty_accesses::.writebacks        21509                       # number of WritebackDirty accesses(hits+misses)
system.l2.WritebackDirty_accesses::total        21509                       # number of WritebackDirty accesses(hits+misses)
system.l2.WritebackClean_hits::.writebacks         3805                       # number of WritebackClean hits
system.l2.WritebackClean_hits::total             3805                       # number of WritebackClean hits
system.l2.WritebackClean_accesses::.writebacks         3805                       # number of WritebackClean accesses(hits+misses)
system.l2.WritebackClean_accesses::total         3805                       # number of WritebackClean accesses(hits+misses)
system.l2.CleanEvict_mshr_misses::.writebacks            7                       # number of CleanEvict MSHR misses
system.l2.CleanEvict_mshr_misses::total             7                       # number of CleanEvict MSHR misses
system.l2.CleanEvict_mshr_miss_rate::.writebacks          inf                       # mshr miss rate for CleanEvict accesses
system.l2.CleanEvict_mshr_miss_rate::total          inf                       # mshr miss rate for CleanEvict accesses
system.l2.ReadExReq_hits::.cpu.data              6116                       # number of ReadExReq hits
system.l2.ReadExReq_hits::total                  6116                       # number of ReadExReq hits
system.l2.ReadExReq_misses::.cpu.data            2811                       # number of ReadExReq misses
system.l2.ReadExReq_misses::total                2811                       # number of ReadExReq misses
system.l2.ReadExReq_miss_latency::.cpu.data    211836000                       # number of ReadExReq miss cycles
system.l2.ReadExReq_miss_latency::total     211836000                       # number of ReadExReq miss cycles
system.l2.ReadExReq_accesses::.cpu.data          8927                       # number of ReadExReq accesses(hits+misses)
system.l2.ReadExReq_accesses::total              8927                       # number of ReadExReq accesses(hits+misses)
system.l2.ReadExReq_miss_rate::.cpu.data     0.314887                       # miss rate for ReadExReq accesses
system.l2.ReadExReq_miss_rate::total         0.314887                       # miss rate for ReadExReq accesses
system.l2.ReadExReq_avg_miss_latency::.cpu.data 75359.658485                       # average ReadExReq miss latency
system.l2.ReadExReq_avg_miss_latency::total 75359.658485                       # average ReadExReq miss latency
system.l2.ReadExReq_mshr_misses::.cpu.data         2811                       # number of ReadExReq MSHR misses
system.l2.ReadExReq_mshr_misses::total           2811                       # number of ReadExReq MSHR misses
system.l2.ReadExReq_mshr_miss_latency::.cpu.data    183726000                       # number of ReadExReq MSHR miss cycles
system.l2.ReadExReq_mshr_miss_latency::total    183726000                       # number of ReadExReq MSHR miss cycles
system.l2.ReadExReq_mshr_miss_rate::.cpu.data     0.314887                       # mshr miss rate for ReadExReq accesses
system.l2.ReadExReq_mshr_miss_rate::total     0.314887                       # mshr miss rate for ReadExReq accesses
system.l2.ReadExReq_avg_mshr_miss_latency::.cpu.data 65359.658485                       # average ReadExReq mshr miss latency
system.l2.ReadExReq_avg_mshr_miss_latency::total 65359.658485                       # average ReadExReq mshr miss latency
system.l2.ReadCleanReq_hits::.cpu.inst           2541                       # number of ReadCleanReq hits
system.l2.ReadCleanReq_hits::total               2541                       # number of ReadCleanReq hits
system.l2.ReadCleanReq_misses::.cpu.inst         1780                       # number of ReadCleanReq misses
system.l2.ReadCleanReq_misses::total             1780                       # number of ReadCleanReq misses
system.l2.ReadCleanReq_miss_latency::.cpu.inst    140631000                       # number of ReadCleanReq miss cycles
system.l2.ReadCleanReq_miss_latency::total    140631000                       # number of ReadCleanReq miss cycles
system.l2.ReadCleanReq_accesses::.cpu.inst         4321                       # number of ReadCleanReq accesses(hits+misses)
system.l2.ReadCleanReq_accesses::total           4321                       # number of ReadCleanReq accesses(hits+misses)
system.l2.ReadCleanReq_miss_rate::.cpu.inst     0.411942                       # miss rate for ReadCleanReq accesses
system.l2.ReadCleanReq_miss_rate::total      0.411942                       # miss rate for ReadCleanReq accesses
system.l2.ReadCleanReq_avg_miss_latency::.cpu.inst 79006.179775                       # average ReadCleanReq miss latency
system.l2.ReadCleanReq_avg_miss_latency::total 79006.179775                       # average ReadCleanReq miss latency
system.l2.ReadCleanReq_mshr_misses::.cpu.inst         1780                       # number of ReadCleanReq MSHR misses
system.l2.ReadCleanReq_mshr_misses::total         1780                       # number of ReadCleanReq MSHR misses
system.l2.ReadCleanReq_mshr_miss_latency::.cpu.inst    122841000                       # number of ReadCleanReq MSHR miss cycles
system.l2.ReadCleanReq_mshr_miss_latency::total    122841000                       # number of ReadCleanReq MSHR miss cycles
system.l2.ReadCleanReq_mshr_miss_rate::.cpu.inst     0.411942                       # mshr miss rate for ReadCleanReq accesses
system.l2.ReadCleanReq_mshr_miss_rate::total     0.411942                       # mshr miss rate for ReadCleanReq accesses
system.l2.ReadCleanReq_avg_mshr_miss_latency::.cpu.inst 69011.797753                       # average ReadCleanReq mshr miss latency
system.l2.ReadCleanReq_avg_mshr_miss_latency::total 69011.797753                       # average ReadCleanReq mshr miss latency
system.l2.ReadSharedReq_hits::.cpu.data         13352                       # number of ReadSharedReq hits
system.l2.ReadSharedReq_hits::total             13352                       # number of ReadSharedReq hits
system.l2.ReadSharedReq_misses::.cpu.data          275                       # number of ReadSharedReq misses
system.l2.ReadSharedReq_misses::total             275                       # number of ReadSharedReq misses
system.l2.ReadSharedReq_miss_latency::.cpu.data     22792000                       # number of ReadSharedReq miss cycles
system.l2.ReadSharedReq_miss_latency::total     22792000                       # number of ReadSharedReq miss cycles
system.l2.ReadSharedReq_accesses::.cpu.data        13627                       # number of ReadSharedReq accesses(hits+misses)
system.l2.ReadSharedReq_accesses::total         13627                       # number of ReadSharedReq accesses(hits+misses)
system.l2.ReadSharedReq_miss_rate::.cpu.data     0.020181                       # miss rate for ReadSharedReq accesses
system.l2.ReadSharedReq_miss_rate::total     0.020181                       # miss rate for ReadSharedReq accesses
system.l2.ReadSharedReq_avg_miss_latency::.cpu.data        82880                       # average ReadSharedReq miss latency
system.l2.ReadSharedReq_avg_miss_latency::total        82880                       # average ReadSharedReq miss latency
system.l2.ReadSharedReq_mshr_hits::.cpu.data            1                       # number of ReadSharedReq MSHR hits
system.l2.ReadSharedReq_mshr_hits::total            1                       # number of ReadSharedReq MSHR hits
system.l2.ReadSharedReq_mshr_misses::.cpu.data          274                       # number of ReadSharedReq MSHR misses
system.l2.ReadSharedReq_mshr_misses::total          274                       # number of ReadSharedReq MSHR misses
system.l2.ReadSharedReq_mshr_miss_latency::.cpu.data     19957500                       # number of ReadSharedReq MSHR miss cycles
system.l2.ReadSharedReq_mshr_miss_latency::total     19957500                       # number of ReadSharedReq MSHR miss cycles
system.l2.ReadSharedReq_mshr_miss_rate::.cpu.data     0.020107                       # mshr miss rate for ReadSharedReq accesses
system.l2.ReadSharedReq_mshr_miss_rate::total     0.020107                       # mshr miss rate for ReadSharedReq accesses
system.l2.ReadSharedReq_avg_mshr_miss_latency::.cpu.data 72837.591241                       # average ReadSharedReq mshr miss latency
system.l2.ReadSharedReq_avg_mshr_miss_latency::total 72837.591241                       # average ReadSharedReq mshr miss latency
system.l2.power_state.pwrStateResidencyTicks::UNDEFINED   1990023500                       # Cumulative time (in ticks) in various power states
system.l2.tags.tagsinuse                  3558.088247                       # Cycle average of tags in use
system.l2.tags.total_refs                       52711                       # Total number of references to valid blocks.
system.l2.tags.sampled_refs                      4961                       # Sample count of references to valid blocks.
system.l2.tags.avg_refs                     10.625076                       # Average number of references to valid blocks.
system.l2.tags.warmup_cycle                     77000                       # Cycle when the warmup percentage was hit.
system.l2.tags.occ_blocks::.writebacks      38.613556                       # Average occupied blocks per requestor
system.l2.tags.occ_blocks::.cpu.inst      1297.645335                       # Average occupied blocks per requestor
system.l2.tags.occ_blocks::.cpu.data      2221.829356                       # Average occupied blocks per requestor
system.l2.tags.occ_percent::.writebacks      0.004714                       # Average percentage of cache occupancy
system.l2.tags.occ_percent::.cpu.inst        0.158404                       # Average percentage of cache occupancy
system.l2.tags.occ_percent::.cpu.data        0.271219                       # Average percentage of cache occupancy
system.l2.tags.occ_percent::total            0.434337                       # Average percentage of cache occupancy
system.l2.tags.occ_task_id_blocks::1024          4616                       # Occupied blocks per task id
system.l2.tags.age_task_id_blocks_1024::0           84                       # Occupied blocks per task id
system.l2.tags.age_task_id_blocks_1024::2          470                       # Occupied blocks per task id
system.l2.tags.age_task_id_blocks_1024::3         4062                       # Occupied blocks per task id
system.l2.tags.occ_task_id_percent::1024     0.563477                       # Percentage of cache occupancy per task id
system.l2.tags.tag_accesses                    110401                       # Number of tag accesses
system.l2.tags.data_accesses                   110401                       # Number of data accesses
system.l2.tags.power_state.pwrStateResidencyTicks::UNDEFINED   1990023500                       # Cumulative time (in ticks) in various power states
system.cpu_voltage_domain.voltage                   1                       # Voltage in Volts
system.mem_ctrls.avgPriority_.writebacks::samples        32.00                       # Average QoS priority value for accepted requests
system.mem_ctrls.avgPriority_.cpu.inst::samples      1779.00                       # Average QoS priority value for accepted requests
system.mem_ctrls.avgPriority_.cpu.data::samples      3077.00                       # Average QoS priority value for accepted requests
system.mem_ctrls.priorityMinLatency      0.000000018750                       # per QoS priority minimum request to response latency (s)
system.mem_ctrls.priorityMaxLatency      0.000000601000                       # per QoS priority maximum request to response latency (s)
system.mem_ctrls.numReadWriteTurnArounds            0                       # Number of turnarounds from READ to WRITE
system.mem_ctrls.numWriteReadTurnArounds            0                       # Number of turnarounds from WRITE to READ
system.mem_ctrls.numStayReadState               10191                       # Number of times bus staying in READ state
system.mem_ctrls.numStayWriteState                  0                       # Number of times bus staying in WRITE state
system.mem_ctrls.readReqs                        4864                       # Number of read requests accepted
system.mem_ctrls.writeReqs                         34                       # Number of write requests accepted
system.mem_ctrls.readBursts                      4864                       # Number of controller read bursts, including those serviced by the write queue
system.mem_ctrls.writeBursts                       34                       # Number of controller write bursts, including those merged in the write queue
system.mem_ctrls.servicedByWrQ                      8                       # Number of controller read bursts serviced by the write queue
system.mem_ctrls.mergedWrBursts                     2                       # Number of controller write bursts merged with an existing one
system.mem_ctrls.neitherReadNorWriteReqs            0                       # Number of requests that are neither read nor write
system.mem_ctrls.avgRdQLen                       1.04                       # Average read queue length when enqueuing
system.mem_ctrls.avgWrQLen                      10.13                       # Average write queue length when enqueuing
system.mem_ctrls.numRdRetry                         0                       # Number of times read queue was full causing retry
system.mem_ctrls.numWrRetry                         0                       # Number of times write queue was full causing retry
system.mem_ctrls.readPktSize::0                     0                       # Read request sizes (log2)
system.mem_ctrls.readPktSize::1                     0                       # Read request sizes (log2)
system.mem_ctrls.readPktSize::2                     0                       # Read request sizes (log2)
system.mem_ctrls.readPktSize::3                     0                       # Read request sizes (log2)
system.mem_ctrls.readPktSize::4                     0                       # Read request sizes (log2)
system.mem_ctrls.readPktSize::5                     0                       # Read request sizes (log2)
system.mem_ctrls.readPktSize::6                  4864                       # Read request sizes (log2)
system.mem_ctrls.writePktSize::0                    0                       # Write request sizes (log2)
system.mem_ctrls.writePktSize::1                    0                       # Write request sizes (log2)
system.mem_ctrls.writePktSize::2                    0                       # Write request sizes (log2)
system.mem_ctrls.writePktSize::3                    0                       # Write request sizes (log2)
system.mem_ctrls.writePktSize::4                    0                       # Write request sizes (log2)
system.mem_ctrls.writePktSize::5                    0                       # Write request sizes (log2)
system.mem_ctrls.writePktSize::6                   34                       # Write request sizes (log2)
system.mem_ctrls.rdQLenPdf::0                    4079                       # What read queue length does an incoming req see
system.mem_ctrls.rdQLenPdf::1                     597                       # What read queue length does an incoming req see
system.mem_ctrls.rdQLenPdf::2                     143                       # What read queue length does an incoming req see
system.mem_ctrls.rdQLenPdf::3                      28                       # What read queue length does an incoming req see
system.mem_ctrls.rdQLenPdf::4                       9                       # What read queue length does an incoming req see
system.mem_ctrls.rdQLenPdf::5                       0                       # What read queue length does an incoming req see
system.mem_ctrls.rdQLenPdf::6                       0                       # What read queue length does an incoming req see
system.mem_ctrls.rdQLenPdf::7                       0                       # What read queue length does an incoming req see
system.mem_ctrls.rdQLenPdf::8                       0                       # What read queue length does an incoming req see
system.mem_ctrls.rdQLenPdf::9                       0                       # What read queue length does an incoming req see
system.mem_ctrls.rdQLenPdf::10                      0                       # What read queue length does an incoming req see
system.mem_ctrls.rdQLenPdf::11                      0                       # What read queue length does an incoming req see
system.mem_ctrls.rdQLenPdf::12                      0                       # What read queue length does an incoming req see
system.mem_ctrls.rdQLenPdf::13                      0                       # What read queue length does an incoming req see
system.mem_ctrls.rdQLenPdf::14                      0                       # What read queue length does an incoming req see
system.mem_ctrls.rdQLenPdf::15                      0                       # What read queue length does an incoming req see
system.mem_ctrls.rdQLenPdf::16                      0                       # What read queue length does an incoming req see
system.mem_ctrls.rdQLenPdf::17                      0                       # What read queue length does an incoming req see
system.mem_ctrls.rdQLenPdf::18                      0                       # What read queue length does an incoming req see
system.mem_ctrls.rdQLenPdf::19                      0                       # What read queue length does an incoming req see
system.mem_ctrls.rdQLenPdf::20                      0                       # What read queue length does an incoming req see
system.mem_ctrls.rdQLenPdf::21                      0                       # What read queue length does an incoming req see
system.mem_ctrls.rdQLenPdf::22                      0                       # What read queue length does an incoming req see
system.mem_ctrls.rdQLenPdf::23                      0                       # What read queue length does an incoming req see
system.mem_ctrls.rdQLenPdf::24                      0                       # What read queue length does an incoming req see
system.mem_ctrls.rdQLenPdf::25                      0                       # What read queue length does an incoming req see
system.mem_ctrls.rdQLenPdf::26                      0                       # What read queue length does an incoming req see
system.mem_ctrls.rdQLenPdf::27                      0                       # What read queue length does an incoming req see
system.mem_ctrls.rdQLenPdf::28                      0                       # What read queue length does an incoming req see
system.mem_ctrls.rdQLenPdf::29                      0                       # What read queue length does an incoming req see
system.mem_ctrls.rdQLenPdf::30                      0                       # What read queue length does an incoming req see
system.mem_ctrls.rdQLenPdf::31                      0                       # What read queue length does an incoming req see
system.mem_ctrls.wrQLenPdf::0                       1                       # What write queue length does an incoming req see
system.mem_ctrls.wrQLenPdf::1                       1                       # What write queue length does an incoming req see
system.mem_ctrls.wrQLenPdf::2                       1                       # What write queue length does an incoming req see
system.mem_ctrls.wrQLenPdf::3                       1                       # What write queue length does an incoming req see
system.mem_ctrls.wrQLenPdf::4                       1                       # What write queue length does an incoming req see
system.mem_ctrls.wrQLenPdf::5                       1                       # What write queue length does an incoming req see
system.mem_ctrls.wrQLenPdf::6                       1                       # What write queue length does an incoming req see
system.mem_ctrls.wrQLenPdf::7                       1                       # What write queue length does an incoming req see
system.mem_ctrls.wrQLenPdf::8                       1                       # What write queue length does an incoming req see
system.mem_ctrls.wrQLenPdf::9                       1                       # What write queue length does an incoming req see
system.mem_ctrls.wrQLenPdf::10                      1                       # What write queue length does an incoming req see
system.mem_ctrls.wrQLenPdf::11                      1                       # What write queue length does an incoming req see
system.mem_ctrls.wrQLenPdf::12                      1                       # What write queue length does an incoming req see
system.mem_ctrls.wrQLenPdf::13                      1                       # What write queue length does an incoming req see
system.mem_ctrls.wrQLenPdf::14                      1                       # What write queue length does an incoming req see
system.mem_ctrls.wrQLenPdf::15                      1                       # What write queue length does an incoming req see
system.mem_ctrls.wrQLenPdf::16                      1                       # What write queue length does an incoming req see
system.mem_ctrls.wrQLenPdf::17                      1                       # What write queue length does an incoming req see
system.mem_ctrls.wrQLenPdf::18                      1                       # What write queue length does an incoming req see
system.mem_ctrls.wrQLenPdf::19                      1                       # What write queue length does an incoming req see
system.mem_ctrls.wrQLenPdf::20                      1                       # What write queue length does an incoming req see
system.mem_ctrls.wrQLenPdf::21                      1                       # What write queue length does an incoming req see
system.mem_ctrls.wrQLenPdf::22                      1                       # What write queue length does an incoming req see
system.mem_ctrls.wrQLenPdf::23                      1                       # What write queue length does an incoming req see
system.mem_ctrls.wrQLenPdf::24                      1                       # What write queue length does an incoming req see
system.mem_ctrls.wrQLenPdf::25                      1                       # What write queue length does an incoming req see
system.mem_ctrls.wrQLenPdf::26                      1                       # What write queue length does an incoming req see
system.mem_ctrls.wrQLenPdf::27                      1                       # What write queue length does an incoming req see
system.mem_ctrls.wrQLenPdf::28                      1                       # What write queue length does an incoming req see
system.mem_ctrls.wrQLenPdf::29                      1                       # What write queue length does an incoming req see
system.mem_ctrls.wrQLenPdf::30                      1                       # What write queue length does an incoming req see
system.mem_ctrls.wrQLenPdf::31                      1                       # What write queue length does an incoming req see
system.mem_ctrls.wrQLenPdf::32                      0                       # What write queue length does an incoming req see
system.mem_ctrls.wrQLenPdf::33                      0                       # What write queue length does an incoming req see
system.mem_ctrls.wrQLenPdf::34                      0                       # What write queue length does an incoming req see
system.mem_ctrls.wrQLenPdf::35                      0                       # What write queue length does an incoming req see
system.mem_ctrls.wrQLenPdf::36                      0                       # What write queue length does an incoming req see
system.mem_ctrls.wrQLenPdf::37                      0                       # What write queue length does an incoming req see
system.mem_ctrls.wrQLenPdf::38                      0                       # What write queue length does an incoming req see
system.mem_ctrls.wrQLenPdf::39                      0                       # What write queue length does an incoming req see
system.mem_ctrls.wrQLenPdf::40                      0                       # What write queue length does an incoming req see
system.mem_ctrls.wrQLenPdf::41                      0                       # What write queue length does an incoming req see
system.mem_ctrls.wrQLenPdf::42                      0                       # What write queue length does an incoming req see
system.mem_ctrls.wrQLenPdf::43                      0                       # What write queue length does an incoming req see
system.mem_ctrls.wrQLenPdf::44                      0                       # What write queue length does an incoming req see
system.mem_ctrls.wrQLenPdf::45                      0                       # What write queue length does an incoming req see
system.mem_ctrls.wrQLenPdf::46                      0                       # What write queue length does an incoming req see
system.mem_ctrls.wrQLenPdf::47                      0                       # What write queue length does an incoming req see
system.mem_ctrls.wrQLenPdf::48                      0                       # What write queue length does an incoming req see
system.mem_ctrls.wrQLenPdf::49                      0                       # What write queue length does an incoming req see
system.mem_ctrls.wrQLenPdf::50                      0                       # What write queue length does an incoming req see
system.mem_ctrls.wrQLenPdf::51                      0                       # What write queue length does an incoming req see
system.mem_ctrls.wrQLenPdf::52                      0                       # What write queue length does an incoming req see
system.mem_ctrls.wrQLenPdf::53                      0                       # What write queue length does an incoming req see
system.mem_ctrls.wrQLenPdf::54                      0                       # What write queue length does an incoming req see
system.mem_ctrls.wrQLenPdf::55                      0                       # What write queue length does an incoming req see
system.mem_ctrls.wrQLenPdf::56                      0                       # What write queue length does an incoming req see
system.mem_ctrls.wrQLenPdf::57                      0                       # What write queue length does an incoming req see
system.mem_ctrls.wrQLenPdf::58                      0                       # What write queue length does an incoming req see
system.mem_ctrls.wrQLenPdf::59                      0                       # What write queue length does an incoming req see
system.mem_ctrls.wrQLenPdf::60                      0                       # What write queue length does an incoming req see
system.mem_ctrls.wrQLenPdf::61                      0                       # What write queue length does an incoming req see
system.mem_ctrls.wrQLenPdf::62                      0                       # What write queue length does an incoming req see
system.mem_ctrls.wrQLenPdf::63                      0                       # What write queue length does an incoming req see
system.mem_ctrls.bytesReadWrQ                     512                       # Total number of bytes read from write queue
system.mem_ctrls.bytesReadSys                  311296                       # Total read bytes from the system interface side
system.mem_ctrls.bytesWrittenSys                 2176                       # Total written bytes from the system interface side
system.mem_ctrls.avgRdBWSys                    156.43                       # Average system read bandwidth in MiByte/s
system.mem_ctrls.avgWrBWSys                      1.09                       # Average system write bandwidth in MiByte/s
system.mem_ctrls.totGap                    1989946000                       # Total gap between requests
system.mem_ctrls.avgGap                     406277.26                       # Average gap between requests
system.mem_ctrls.requestorReadBytes::.cpu.inst       113856                       # Per-requestor bytes read from memory
system.mem_ctrls.requestorReadBytes::.cpu.data       196928                       # Per-requestor bytes read from memory
system.mem_ctrls.requestorReadRate::.cpu.inst 57213394.716193057597                       # Per-requestor bytes read from memory rate (Bytes/sec)
system.mem_ctrls.requestorReadRate::.cpu.data 98957625.374775737524                       # Per-requestor bytes read from memory rate (Bytes/sec)
system.mem_ctrls.requestorReadAccesses::.cpu.inst         1779                       # Per-requestor read serviced memory accesses
system.mem_ctrls.requestorReadAccesses::.cpu.data         3085                       # Per-requestor read serviced memory accesses
system.mem_ctrls.requestorWriteAccesses::.writebacks           34                       # Per-requestor write serviced memory accesses
system.mem_ctrls.requestorReadTotalLat::.cpu.inst     49690000                       # Per-requestor read total memory access latency
system.mem_ctrls.requestorReadTotalLat::.cpu.data     77269500                       # Per-requestor read total memory access latency
system.mem_ctrls.requestorReadAvgLat::.cpu.inst     27931.42                       # Per-requestor read average memory access latency
system.mem_ctrls.requestorReadAvgLat::.cpu.data     25046.84                       # Per-requestor read average memory access latency
system.mem_ctrls.requestorWriteAvgLat::.writebacks         0.00                       # Per-requestor write average memory access latency
system.mem_ctrls.dram.bytes_read::.cpu.inst       113856                       # Number of bytes read from this memory
system.mem_ctrls.dram.bytes_read::.cpu.data       197440                       # Number of bytes read from this memory
system.mem_ctrls.dram.bytes_read::total        311296                       # Number of bytes read from this memory
system.mem_ctrls.dram.bytes_inst_read::.cpu.inst       113856                       # Number of instructions bytes read from this memory
system.mem_ctrls.dram.bytes_inst_read::total       113856                       # Number of instructions bytes read from this memory
system.mem_ctrls.dram.bytes_written::.writebacks         2176                       # Number of bytes written to this memory
system.mem_ctrls.dram.bytes_written::total         2176                       # Number of bytes written to this memory
system.mem_ctrls.dram.num_reads::.cpu.inst         1779                       # Number of read requests responded to by this memory
system.mem_ctrls.dram.num_reads::.cpu.data         3085                       # Number of read requests responded to by this memory
system.mem_ctrls.dram.num_reads::total           4864                       # Number of read requests responded to by this memory
system.mem_ctrls.dram.num_writes::.writebacks           34                       # Number of write requests responded to by this memory
system.mem_ctrls.dram.num_writes::total            34                       # Number of write requests responded to by this memory
system.mem_ctrls.dram.bw_read::.cpu.inst     57213395                       # Total read bandwidth from this memory (bytes/s)
system.mem_ctrls.dram.bw_read::.cpu.data     99214909                       # Total read bandwidth from this memory (bytes/s)
system.mem_ctrls.dram.bw_read::total        156428303                       # Total read bandwidth from this memory (bytes/s)
system.mem_ctrls.dram.bw_inst_read::.cpu.inst     57213395                       # Instruction read bandwidth from this memory (bytes/s)
system.mem_ctrls.dram.bw_inst_read::total     57213395                       # Instruction read bandwidth from this memory (bytes/s)
system.mem_ctrls.dram.bw_write::.writebacks      1093454                       # Write bandwidth from this memory (bytes/s)
system.mem_ctrls.dram.bw_write::total         1093454                       # Write bandwidth from this memory (bytes/s)
system.mem_ctrls.dram.bw_total::.writebacks      1093454                       # Total bandwidth to/from this memory (bytes/s)
system.mem_ctrls.dram.bw_total::.cpu.inst     57213395                       # Total bandwidth to/from this memory (bytes/s)
system.mem_ctrls.dram.bw_total::.cpu.data     99214909                       # Total bandwidth to/from this memory (bytes/s)
system.mem_ctrls.dram.bw_total::total       157521758                       # Total bandwidth to/from this memory (bytes/s)
system.mem_ctrls.dram.readBursts                 4856                       # Number of DRAM read bursts
system.mem_ctrls.dram.writeBursts                   0                       # Number of DRAM write bursts
system.mem_ctrls.dram.perBankRdBursts::0          363                       # Per bank write bursts
system.mem_ctrls.dram.perBankRdBursts::1          374                       # Per bank write bursts
system.mem_ctrls.dram.perBankRdBursts::2          514                       # Per bank write bursts
system.mem_ctrls.dram.perBankRdBursts::3          388                       # Per bank write bursts
system.mem_ctrls.dram.perBankRdBursts::4          353                       # Per bank write bursts
system.mem_ctrls.dram.perBankRdBursts::5          391                       # Per bank write bursts
system.mem_ctrls.dram.perBankRdBursts::6          252                       # Per bank write bursts
system.mem_ctrls.dram.perBankRdBursts::7          196                       # Per bank write bursts
system.mem_ctrls.dram.perBankRdBursts::8          250                       # Per bank write bursts
system.mem_ctrls.dram.perBankRdBursts::9          271                       # Per bank write bursts
system.mem_ctrls.dram.perBankRdBursts::10          260                       # Per bank write bursts
system.mem_ctrls.dram.perBankRdBursts::11          179                       # Per bank write bursts
system.mem_ctrls.dram.perBankRdBursts::12          246                       # Per bank write bursts
system.mem_ctrls.dram.perBankRdBursts::13          258                       # Per bank write bursts
system.mem_ctrls.dram.perBankRdBursts::14          309                       # Per bank write bursts
system.mem_ctrls.dram.perBankRdBursts::15          252                       # Per bank write bursts
system.mem_ctrls.dram.perBankWrBursts::0            0                       # Per bank write bursts
system.mem_ctrls.dram.perBankWrBursts::1            0                       # Per bank write bursts
system.mem_ctrls.dram.perBankWrBursts::2            0                       # Per bank write bursts
system.mem_ctrls.dram.perBankWrBursts::3            0                       # Per bank write bursts
system.mem_ctrls.dram.perBankWrBursts::4            0                       # Per bank write bursts
system.mem_ctrls.dram.perBankWrBursts::5            0                       # Per bank write bursts
system.mem_ctrls.dram.perBankWrBursts::6            0                       # Per bank write bursts
system.mem_ctrls.dram.perBankWrBursts::7            0                       # Per bank write bursts
system.mem_ctrls.dram.perBankWrBursts::8            0                       # Per bank write bursts
system.mem_ctrls.dram.perBankWrBursts::9            0                       # Per bank write bursts
system.mem_ctrls.dram.perBankWrBursts::10            0                       # Per bank write bursts
system.mem_ctrls.dram.perBankWrBursts::11            0                       # Per bank write bursts
system.mem_ctrls.dram.perBankWrBursts::12            0                       # Per bank write bursts
system.mem_ctrls.dram.perBankWrBursts::13            0                       # Per bank write bursts
system.mem_ctrls.dram.perBankWrBursts::14            0                       # Per bank write bursts
system.mem_ctrls.dram.perBankWrBursts::15            0                       # Per bank write bursts
system.mem_ctrls.dram.totQLat                35909500                       # Total ticks spent queuing
system.mem_ctrls.dram.totBusLat              24280000                       # Total ticks spent in databus transfers
system.mem_ctrls.dram.totMemAccLat          126959500                       # Total ticks spent from burst creation until serviced by the DRAM
system.mem_ctrls.dram.avgQLat                 7394.87                       # Average queueing delay per DRAM burst
system.mem_ctrls.dram.avgBusLat               5000.00                       # Average bus latency per DRAM burst
system.mem_ctrls.dram.avgMemAccLat           26144.87                       # Average memory access latency per DRAM burst
system.mem_ctrls.dram.readRowHits                3969                       # Number of row buffer hits during reads
system.mem_ctrls.dram.writeRowHits                  0                       # Number of row buffer hits during writes
system.mem_ctrls.dram.readRowHitRate            81.73                       # Row buffer hit rate for reads
system.mem_ctrls.dram.writeRowHitRate             nan                       # Row buffer hit rate for writes
system.mem_ctrls.dram.bytesPerActivate::samples          874                       # Bytes accessed per row activation
system.mem_ctrls.dram.bytesPerActivate::mean   353.244851                       # Bytes accessed per row activation
system.mem_ctrls.dram.bytesPerActivate::gmean   226.046583                       # Bytes accessed per row activation
system.mem_ctrls.dram.bytesPerActivate::stdev   318.111592                       # Bytes accessed per row activation
system.mem_ctrls.dram.bytesPerActivate::0-127          236     27.00%     27.00% # Bytes accessed per row activation
system.mem_ctrls.dram.bytesPerActivate::128-255          196     22.43%     49.43% # Bytes accessed per row activation
system.mem_ctrls.dram.bytesPerActivate::256-383          116     13.27%     62.70% # Bytes accessed per row activation
system.mem_ctrls.dram.bytesPerActivate::384-511           75      8.58%     71.28% # Bytes accessed per row activation
system.mem_ctrls.dram.bytesPerActivate::512-639           74      8.47%     79.75% # Bytes accessed per row activation
[...]
system.cpu.dcache.SoftPFReq_hits::.cpu.data         7762                       # number of SoftPFReq hits
system.cpu.dcache.SoftPFReq_hits::total          7762                       # number of SoftPFReq hits
system.cpu.dcache.SoftPFReq_misses::.cpu.data          614                       # number of SoftPFReq misses
system.cpu.dcache.SoftPFReq_misses::total          614                       # number of SoftPFReq misses
system.cpu.dcache.SoftPFReq_accesses::.cpu.data         8376                       # number of SoftPFReq accesses(hits+misses)
system.cpu.dcache.SoftPFReq_accesses::total         8376                       # number of SoftPFReq accesses(hits+misses)
system.cpu.dcache.SoftPFReq_miss_rate::.cpu.data     0.073305                       # miss rate for SoftPFReq accesses
system.cpu.dcache.SoftPFReq_miss_rate::total     0.073305                       # miss rate for SoftPFReq accesses
system.cpu.dcache.SoftPFReq_mshr_misses::.cpu.data          436                       # number of SoftPFReq MSHR misses
system.cpu.dcache.SoftPFReq_mshr_misses::total          436                       # number of SoftPFReq MSHR misses
system.cpu.dcache.SoftPFReq_mshr_miss_latency::.cpu.data      5304000                       # number of SoftPFReq MSHR miss cycles
system.cpu.dcache.SoftPFReq_mshr_miss_latency::total      5304000                       # number of SoftPFReq MSHR miss cycles
system.cpu.dcache.SoftPFReq_mshr_miss_rate::.cpu.data     0.052053                       # mshr miss rate for SoftPFReq accesses
system.cpu.dcache.SoftPFReq_mshr_miss_rate::total     0.052053                       # mshr miss rate for SoftPFReq accesses
system.cpu.dcache.SoftPFReq_avg_mshr_miss_latency::.cpu.data 12165.137615                       # average SoftPFReq mshr miss latency
system.cpu.dcache.SoftPFReq_avg_mshr_miss_latency::total 12165.137615                       # average SoftPFReq mshr miss latency
system.cpu.dcache.power_state.pwrStateResidencyTicks::UNDEFINED   1990023500                       # Cumulative time (in ticks) in various power states
system.cpu.dcache.tags.tagsinuse           500.319109                       # Cycle average of tags in use
system.cpu.dcache.tags.total_refs             1312642                       # Total number of references to valid blocks.
system.cpu.dcache.tags.sampled_refs             22554                       # Sample count of references to valid blocks.
system.cpu.dcache.tags.avg_refs             58.199965                       # Average number of references to valid blocks.
system.cpu.dcache.tags.warmup_cycle            190500                       # Cycle when the warmup percentage was hit.
system.cpu.dcache.tags.occ_blocks::.cpu.data   500.319109                       # Average occupied blocks per requestor
system.cpu.dcache.tags.occ_percent::.cpu.data     0.977186                       # Average percentage of cache occupancy
system.cpu.dcache.tags.occ_percent::total     0.977186                       # Average percentage of cache occupancy
system.cpu.dcache.tags.occ_task_id_blocks::1024          512                       # Occupied blocks per task id
system.cpu.dcache.tags.age_task_id_blocks_1024::0          100                       # Occupied blocks per task id
system.cpu.dcache.tags.age_task_id_blocks_1024::1          404                       # Occupied blocks per task id
system.cpu.dcache.tags.age_task_id_blocks_1024::2            8                       # Occupied blocks per task id
system.cpu.dcache.tags.occ_task_id_percent::1024            1                       # Percentage of cache occupancy per task id
system.cpu.dcache.tags.tag_accesses          10915082                       # Number of tag accesses
system.cpu.dcache.tags.data_accesses         10915082                       # Number of data accesses
system.cpu.dcache.tags.power_state.pwrStateResidencyTicks::UNDEFINED   1990023500                       # Cumulative time (in ticks) in various power states
system.cpu.power_state.pwrStateResidencyTicks::ON   1990023500                       # Cumulative time (in ticks) in various power states
system.cpu.branchPred.lookups                 1376846                       # Number of BP lookups
system.cpu.branchPred.condPredicted           1202669                       # Number of conditional branches predicted
system.cpu.branchPred.condIncorrect             80709                       # Number of conditional branches incorrect
system.cpu.branchPred.BTBLookups               745258                       # Number of BTB lookups
system.cpu.branchPred.BTBHits                  738803                       # Number of BTB hits
system.cpu.branchPred.BTBHitPct             99.133857                       # BTB Hit Percentage
system.cpu.branchPred.RASUsed                   40986                       # Number of times the RAS was used to get a target.
system.cpu.branchPred.RASIncorrect                 19                       # Number of incorrect RAS predictions.
system.cpu.branchPred.indirectLookups           15579                       # Number of indirect predictor lookups.
system.cpu.branchPred.indirectHits              11074                       # Number of indirect target hits.
system.cpu.branchPred.indirectMisses             4505                       # Number of indirect misses.
system.cpu.branchPred.indirectMispredicted          769                       # Number of mispredicted indirect branches.
system.cpu.commit.commitSquashedInsts         3215010                       # The number of squashed insts skipped by commit
system.cpu.commit.commitNonSpecStalls             215                       # The number of times commit has been forced to stall to communicate backwards
system.cpu.commit.branchMispredicts             77093                       # The number of times a branch was mispredicted
system.cpu.commit.numCommittedDist::samples      3402097                       # Number of insts commited each cycle
system.cpu.commit.numCommittedDist::mean     2.069278                       # Number of insts commited each cycle
system.cpu.commit.numCommittedDist::stdev     2.668023                       # Number of insts commited each cycle
system.cpu.commit.numCommittedDist::underflows            0      0.00%      0.00% # Number of insts commited each cycle
system.cpu.commit.numCommittedDist::0         1398034     41.09%     41.09% # Number of insts commited each cycle
system.cpu.commit.numCommittedDist::1          650930     19.13%     60.23% # Number of insts commited each cycle
system.cpu.commit.numCommittedDist::2          307443      9.04%     69.26% # Number of insts commited each cycle
system.cpu.commit.numCommittedDist::3          325505      9.57%     78.83% # Number of insts commited each cycle
system.cpu.commit.numCommittedDist::4          152788      4.49%     83.32% # Number of insts commited each cycle
system.cpu.commit.numCommittedDist::5           68140      2.00%     85.33% # Number of insts commited each cycle
system.cpu.commit.numCommittedDist::6           49643      1.46%     86.78% # Number of insts commited each cycle
system.cpu.commit.numCommittedDist::7           49068      1.44%     88.23% # Number of insts commited each cycle
system.cpu.commit.numCommittedDist::8          400546     11.77%    100.00% # Number of insts commited each cycle
system.cpu.commit.numCommittedDist::overflows            0      0.00%    100.00% # Number of insts commited each cycle
system.cpu.commit.numCommittedDist::min_value            0                       # Number of insts commited each cycle
system.cpu.commit.numCommittedDist::max_value            8                       # Number of insts commited each cycle
system.cpu.commit.numCommittedDist::total      3402097                       # Number of insts commited each cycle
system.cpu.commit.instsCommitted              3827050                       # Number of instructions committed
system.cpu.commit.opsCommitted                7039885                       # Number of ops (including micro ops) committed
system.cpu.commit.memRefs                     1156207                       # Number of memory references committed
system.cpu.commit.loads                        793005                       # Number of loads committed
system.cpu.commit.amos                              0                       # Number of atomic instructions committed
system.cpu.commit.membars                           0                       # Number of memory barriers committed
system.cpu.commit.branches                     810884                       # Number of branches committed
system.cpu.commit.vector                            0                       # Number of committed Vector instructions.
system.cpu.commit.floating                     123616                       # Number of committed floating point instructions.
system.cpu.commit.integer                     6820165                       # Number of committed integer instructions.
system.cpu.commit.functionCalls                 29685                       # Number of function calls committed.
system.cpu.commit.committedInstType_0::No_OpClass       138427      1.97%      1.97% # Class of committed instruction
system.cpu.commit.committedInstType_0::IntAlu      5100146     72.45%     74.41% # Class of committed instruction
system.cpu.commit.committedInstType_0::IntMult        20128      0.29%     74.70% # Class of committed instruction
system.cpu.commit.committedInstType_0::IntDiv       568663      8.08%     82.78% # Class of committed instruction
system.cpu.commit.committedInstType_0::FloatAdd          980      0.01%     82.79% # Class of committed instruction
system.cpu.commit.committedInstType_0::FloatCmp            0      0.00%     82.79% # Class of committed instruction
system.cpu.commit.committedInstType_0::FloatCvt            0      0.00%     82.79% # Class of committed instruction
system.cpu.commit.committedInstType_0::FloatMult            0      0.00%     82.79% # Class of committed instruction
system.cpu.commit.committedInstType_0::FloatMultAcc            0      0.00%     82.79% # Class of committed instruction
system.cpu.commit.committedInstType_0::FloatDiv            0      0.00%     82.79% # Class of committed instruction
system.cpu.commit.committedInstType_0::FloatMisc            0      0.00%     82.79% # Class of committed instruction
system.cpu.commit.committedInstType_0::FloatSqrt            0      0.00%     82.79% # Class of committed instruction
system.cpu.commit.committedInstType_0::SimdAdd         2442      0.03%     82.83% # Class of committed instruction
system.cpu.commit.committedInstType_0::SimdAddAcc            0      0.00%     82.83% # Class of committed instruction
system.cpu.commit.committedInstType_0::SimdAlu        30662      0.44%     83.26% # Class of committed instruction
system.cpu.commit.committedInstType_0::SimdCmp            0      0.00%     83.26% # Class of committed instruction
system.cpu.commit.committedInstType_0::SimdCvt        11988      0.17%     83.43% # Class of committed instruction
system.cpu.commit.committedInstType_0::SimdMisc         8480      0.12%     83.55% # Class of committed instruction
system.cpu.commit.committedInstType_0::SimdMult            0      0.00%     83.55% # Class of committed instruction
system.cpu.commit.committedInstType_0::SimdMultAcc            0      0.00%     83.55% # Class of committed instruction
system.cpu.commit.committedInstType_0::SimdShift         1222      0.02%     83.57% # Class of committed instruction
system.cpu.commit.committedInstType_0::SimdShiftAcc            0      0.00%     83.57% # Class of committed instruction
system.cpu.commit.committedInstType_0::SimdDiv            0      0.00%     83.57% # Class of committed instruction
system.cpu.commit.committedInstType_0::SimdSqrt            0      0.00%     83.57% # Class of committed instruction
system.cpu.commit.committedInstType_0::SimdFloatAdd           16      0.00%     83.57% # Class of committed instruction
system.cpu.commit.committedInstType_0::SimdFloatAlu            0      0.00%     83.57% # Class of committed instruction
system.cpu.commit.committedInstType_0::SimdFloatCmp            0      0.00%     83.57% # Class of committed instruction
system.cpu.commit.committedInstType_0::SimdFloatCvt          393      0.01%     83.57% # Class of committed instruction
system.cpu.commit.committedInstType_0::SimdFloatDiv          131      0.00%     83.58% # Class of committed instruction
system.cpu.commit.committedInstType_0::SimdFloatMisc            0      0.00%     83.58% # Class of committed instruction
system.cpu.commit.committedInstType_0::SimdFloatMult            0      0.00%     83.58% # Class of committed instruction
system.cpu.commit.committedInstType_0::SimdFloatMultAcc            0      0.00%     83.58% # Class of committed instruction
system.cpu.commit.committedInstType_0::SimdFloatSqrt            0      0.00%     83.58% # Class of committed instruction
system.cpu.commit.committedInstType_0::SimdReduceAdd            0      0.00%     83.58% # Class of committed instruction
system.cpu.commit.committedInstType_0::SimdReduceAlu            0      0.00%     83.58% # Class of committed instruction
system.cpu.commit.committedInstType_0::SimdReduceCmp            0      0.00%     83.58% # Class of committed instruction
system.cpu.commit.committedInstType_0::SimdFloatReduceAdd            0      0.00%     83.58% # Class of committed instruction
system.cpu.commit.committedInstType_0::SimdFloatReduceCmp            0      0.00%     83.58% # Class of committed instruction
system.cpu.commit.committedInstType_0::SimdAes            0      0.00%     83.58% # Class of committed instruction
system.cpu.commit.committedInstType_0::SimdAesMix            0      0.00%     83.58% # Class of committed instruction
system.cpu.commit.committedInstType_0::SimdSha1Hash            0      0.00%     83.58% # Class of committed instruction
system.cpu.commit.committedInstType_0::SimdSha1Hash2            0      0.00%     83.58% # Class of committed instruction
system.cpu.commit.committedInstType_0::SimdSha256Hash            0      0.00%     83.58% # Class of committed instruction
system.cpu.commit.committedInstType_0::SimdSha256Hash2            0      0.00%     83.58% # Class of committed instruction
system.cpu.commit.committedInstType_0::SimdShaSigma2            0      0.00%     83.58% # Class of committed instruction
system.cpu.commit.committedInstType_0::SimdShaSigma3            0      0.00%     83.58% # Class of committed instruction
system.cpu.commit.committedInstType_0::SimdPredAlu            0      0.00%     83.58% # Class of committed instruction
system.cpu.commit.committedInstType_0::MemRead       765247     10.87%     94.45% # Class of committed instruction
system.cpu.commit.committedInstType_0::MemWrite       343605      4.88%     99.33% # Class of committed instruction
system.cpu.commit.committedInstType_0::FloatMemRead        27758      0.39%     99.72% # Class of committed instruction
system.cpu.commit.committedInstType_0::FloatMemWrite        19597      0.28%    100.00% # Class of committed instruction
system.cpu.commit.committedInstType_0::IprAccess            0      0.00%    100.00% # Class of committed instruction
system.cpu.commit.committedInstType_0::InstPrefetch            0      0.00%    100.00% # Class of committed instruction
system.cpu.commit.committedInstType_0::total      7039885                       # Class of committed instruction
system.cpu.commit.commitEligibleSamples        400546                       # number cycles where commit BW limit reached
system.cpu.thread0.numInsts                   3827050                       # Number of Instructions committed
system.cpu.thread0.numOps                     7039885                       # Number of Ops committed
system.cpu.thread0.numMemRefs                       0                       # Number of Memory References
system.cpu.fetch.icacheStallCycles            1056912                       # Number of cycles fetch is stalled on an Icache miss
system.cpu.fetch.insts                        6650128                       # Number of instructions fetch has processed
system.cpu.fetch.branches                     1376846                       # Number of branches that fetch encountered
system.cpu.fetch.predictedBranches             790863                       # Number of branches that fetch has predicted taken
system.cpu.fetch.cycles                       2708008                       # Number of cycles fetch has run and was not squashing or blocked
system.cpu.fetch.squashCycles                  168102                       # Number of cycles fetch has spent squashing
system.cpu.fetch.miscStallCycles                  329                       # Number of cycles fetch has spent waiting on interrupts,or bad addresses, or out of MSHRs
system.cpu.fetch.pendingTrapStallCycles          2180                       # Number of stall cycles due to pending traps
system.cpu.fetch.pendingQuiesceStallCycles            2                       # Number of stall cycles due to pending quiesce instructions
system.cpu.fetch.icacheWaitRetryStallCycles           68                       # Number of stall cycles due to full MSHR
system.cpu.fetch.cacheLines                    917247                       # Number of cache lines fetched
system.cpu.fetch.icacheSquashes                 29518                       # Number of outstanding Icache misses that were squashed
system.cpu.fetch.nisnDist::samples            3851550                       # Number of instructions fetched each cycle (Total)
system.cpu.fetch.nisnDist::mean              3.075159                       # Number of instructions fetched each cycle (Total)
system.cpu.fetch.nisnDist::stdev             3.465287                       # Number of instructions fetched each cycle (Total)
system.cpu.fetch.nisnDist::underflows               0      0.00%      0.00% # Number of instructions fetched each cycle (Total)
system.cpu.fetch.nisnDist::0                  1904825     49.46%     49.46% # Number of instructions fetched each cycle (Total)
system.cpu.fetch.nisnDist::1                    84811      2.20%     51.66% # Number of instructions fetched each cycle (Total)
system.cpu.fetch.nisnDist::2                   150175      3.90%     55.56% # Number of instructions fetched each cycle (Total)
system.cpu.fetch.nisnDist::3                   165672      4.30%     59.86% # Number of instructions fetched each cycle (Total)
system.cpu.fetch.nisnDist::4                   121812      3.16%     63.02% # Number of instructions fetched each cycle (Total)
system.cpu.fetch.nisnDist::5                   151528      3.93%     66.96% # Number of instructions fetched each cycle (Total)
system.cpu.fetch.nisnDist::6                   137898      3.58%     70.54% # Number of instructions fetched each cycle (Total)
system.cpu.fetch.nisnDist::7                   188955      4.91%     75.44% # Number of instructions fetched each cycle (Total)
system.cpu.fetch.nisnDist::8                   945874     24.56%    100.00% # Number of instructions fetched each cycle (Total)
system.cpu.fetch.nisnDist::overflows                0      0.00%    100.00% # Number of instructions fetched each cycle (Total)
system.cpu.fetch.nisnDist::min_value                0                       # Number of instructions fetched each cycle (Total)
system.cpu.fetch.nisnDist::max_value                8                       # Number of instructions fetched each cycle (Total)
system.cpu.fetch.nisnDist::total              3851550                       # Number of instructions fetched each cycle (Total)
system.cpu.fetch.branchRate                  0.345937                       # Number of branch fetches per cycle
system.cpu.fetch.rate                        1.670866                       # Number of inst fetches per cycle

---------- End Simulation Statistics   ----------
