
---------- Begin Simulation Statistics ----------
final_tick                                 2067896500                       # Number of ticks from beginning of simulation (restored from checkpoints and never reset)
host_inst_rate                                 134675                       # Simulator instruction rate (inst/s)
host_mem_usage                                 727912                       # Number of bytes of host memory used
host_op_rate                                   247721                       # Simulator op (including micro ops) rate (op/s)
host_seconds                                    28.41                       # Real time elapsed on the host
host_tick_rate                               72782485                       # Simulator tick rate (ticks/s)
sim_freq                                 1000000000000                       # Frequency of simulated ticks
sim_insts                                     3826356                       # Number of instructions simulated
sim_ops                                       7038256                       # Number of ops (including micro ops) simulated
sim_seconds                                  0.002068                       # Number of seconds simulated
sim_ticks                                  2067896500                       # Number of ticks simulated
system.cpu.cc_regfile_reads                   5087235                       # number of cc regfile reads
system.cpu.cc_regfile_writes                  3573598                       # number of cc regfile writes
system.cpu.committedInsts                     3826356                       # Number of Instructions Simulated
system.cpu.committedOps                       7038256                       # Number of Ops (including micro ops) Simulated
system.cpu.cpi                               1.080870                       # CPI: Cycles Per Instruction
system.cpu.cpi_total                         1.080870                       # CPI: Total CPI of All Threads
system.cpu.fp_regfile_reads                    216525                       # number of floating regfile reads
system.cpu.fp_regfile_writes                   142813                       # number of floating regfile writes
system.cpu.idleCycles                          139895                       # Total number of cycles that the CPU has spent unscheduled due to idling
system.cpu.iew.branchMispredicts                83536                       # Number of branch mispredicts detected at execute
system.cpu.iew.exec_branches                   979220                       # Number of branches executed
system.cpu.iew.exec_nop                             0                       # number of nop insts executed
system.cpu.iew.exec_rate                     2.216671                       # Inst execution rate
system.cpu.iew.exec_refs                      1560546                       # number of memory reference insts executed
system.cpu.iew.exec_stores                     483864                       # Number of stores executed
system.cpu.iew.exec_swp                             0                       # number of swp insts executed
system.cpu.iew.iewBlockCycles                  379998                       # Number of cycles IEW is blocking
system.cpu.iew.iewDispLoadInsts               1215340                       # Number of dispatched load instructions
system.cpu.iew.iewDispNonSpecInsts                232                       # Number of dispatched non-speculative instructions
system.cpu.iew.iewDispSquashedInsts              8540                       # Number of squashed instructions skipped by dispatch
system.cpu.iew.iewDispStoreInsts               618204                       # Number of dispatched store instructions
system.cpu.iew.iewDispatchedInsts            10324829                       # Number of instructions dispatched to IQ
system.cpu.iew.iewExecLoadInsts               1076682                       # Number of load instructions executed
system.cpu.iew.iewExecSquashedInsts            170781                       # Number of squashed instructions skipped in execute
system.cpu.iew.iewExecutedInsts               9167696                       # Number of executed instructions
system.cpu.iew.iewIQFullEvents                   4553                       # Number of times the IQ has become full, causing a stall
system.cpu.iew.iewIdleCycles                        0                       # Number of cycles IEW is idle
system.cpu.iew.iewLSQFullEvents                108846                       # Number of times the LSQ has become full, causing a stall
system.cpu.iew.iewSquashCycles                  80123                       # Number of cycles IEW is squashing
system.cpu.iew.iewUnblockCycles                115017                       # Number of cycles IEW is unblocking
system.cpu.iew.memOrderViolationEvents            350                       # Number of memory order violations
system.cpu.iew.predictedNotTakenIncorrect        46345                       # Number of branches that were predicted not taken incorrectly
system.cpu.iew.predictedTakenIncorrect          37191                       # Number of branches that were predicted taken incorrectly
system.cpu.iew.wb_consumers                  12898921                       # num instructions consuming a value
system.cpu.iew.wb_count                       9058287                       # cumulative count of insts written-back
system.cpu.iew.wb_fanout                     0.532505                       # average fanout of values written-back
system.cpu.iew.wb_producers                   6868738                       # num instructions producing a value
system.cpu.iew.wb_rate                       2.190217                       # insts written-back per cycle
system.cpu.iew.wb_sent                        9116482                       # cumulative count of insts sent to commit
system.cpu.int_regfile_reads                 15156992                       # number of integer regfile reads
system.cpu.int_regfile_writes                 8734096                       # number of integer regfile writes
system.cpu.ipc                               0.925181                       # IPC: Instructions Per Cycle
system.cpu.ipc_total                         0.925181                       # IPC: Total IPC of All Threads
system.cpu.iq.FU_type_0::No_OpClass            181697      1.95%      1.95% # Type of FU issued
system.cpu.iq.FU_type_0::IntAlu               6843809     73.29%     75.23% # Type of FU issued
system.cpu.iq.FU_type_0::IntMult                20593      0.22%     75.45% # Type of FU issued
system.cpu.iq.FU_type_0::IntDiv                632007      6.77%     82.22% # Type of FU issued
system.cpu.iq.FU_type_0::FloatAdd                1295      0.01%     82.23% # Type of FU issued
system.cpu.iq.FU_type_0::FloatCmp                   0      0.00%     82.23% # Type of FU issued
system.cpu.iq.FU_type_0::FloatCvt                   0      0.00%     82.23% # Type of FU issued
system.cpu.iq.FU_type_0::FloatMult                  0      0.00%     82.23% # Type of FU issued
system.cpu.iq.FU_type_0::FloatMultAcc               0      0.00%     82.23% # Type of FU issued
system.cpu.iq.FU_type_0::FloatDiv                   0      0.00%     82.23% # Type of FU issued
system.cpu.iq.FU_type_0::FloatMisc                  0      0.00%     82.23% # Type of FU issued
system.cpu.iq.FU_type_0::FloatSqrt                  0      0.00%     82.23% # Type of FU issued
system.cpu.iq.FU_type_0::SimdAdd                 2446      0.03%     82.26% # Type of FU issued
system.cpu.iq.FU_type_0::SimdAddAcc                 0      0.00%     82.26% # Type of FU issued
system.cpu.iq.FU_type_0::SimdAlu                31509      0.34%     82.60% # Type of FU issued
system.cpu.iq.FU_type_0::SimdCmp                    0      0.00%     82.60% # Type of FU issued
system.cpu.iq.FU_type_0::SimdCvt                12010      0.13%     82.73% # Type of FU issued
system.cpu.iq.FU_type_0::SimdMisc                8706      0.09%     82.82% # Type of FU issued
system.cpu.iq.FU_type_0::SimdMult                   0      0.00%     82.82% # Type of FU issued
system.cpu.iq.FU_type_0::SimdMultAcc                0      0.00%     82.82% # Type of FU issued
system.cpu.iq.FU_type_0::SimdShift               1232      0.01%     82.83% # Type of FU issued
system.cpu.iq.FU_type_0::SimdShiftAcc               0      0.00%     82.83% # Type of FU issued
system.cpu.iq.FU_type_0::SimdDiv                    0      0.00%     82.83% # Type of FU issued
system.cpu.iq.FU_type_0::SimdSqrt                   0      0.00%     82.83% # Type of FU issued
system.cpu.iq.FU_type_0::SimdFloatAdd              16      0.00%     82.83% # Type of FU issued
system.cpu.iq.FU_type_0::SimdFloatAlu               0      0.00%     82.83% # Type of FU issued
system.cpu.iq.FU_type_0::SimdFloatCmp               0      0.00%     82.83% # Type of FU issued
system.cpu.iq.FU_type_0::SimdFloatCvt             541      0.01%     82.84% # Type of FU issued
system.cpu.iq.FU_type_0::SimdFloatDiv             241      0.00%     82.84% # Type of FU issued
system.cpu.iq.FU_type_0::SimdFloatMisc              0      0.00%     82.84% # Type of FU issued
system.cpu.iq.FU_type_0::SimdFloatMult              0      0.00%     82.84% # Type of FU issued
system.cpu.iq.FU_type_0::SimdFloatMultAcc            0      0.00%     82.84% # Type of FU issued
system.cpu.iq.FU_type_0::SimdFloatSqrt              0      0.00%     82.84% # Type of FU issued
system.cpu.iq.FU_type_0::SimdReduceAdd              0      0.00%     82.84% # Type of FU issued
system.cpu.iq.FU_type_0::SimdReduceAlu              0      0.00%     82.84% # Type of FU issued
system.cpu.iq.FU_type_0::SimdReduceCmp              0      0.00%     82.84% # Type of FU issued
system.cpu.iq.FU_type_0::SimdFloatReduceAdd            0      0.00%     82.84% # Type of FU issued
system.cpu.iq.FU_type_0::SimdFloatReduceCmp            0      0.00%     82.84% # Type of FU issued
system.cpu.iq.FU_type_0::SimdAes                    0      0.00%     82.84% # Type of FU issued
system.cpu.iq.FU_type_0::SimdAesMix                 0      0.00%     82.84% # Type of FU issued
system.cpu.iq.FU_type_0::SimdSha1Hash               0      0.00%     82.84% # Type of FU issued
system.cpu.iq.FU_type_0::SimdSha1Hash2              0      0.00%     82.84% # Type of FU issued
system.cpu.iq.FU_type_0::SimdSha256Hash             0      0.00%     82.84% # Type of FU issued
system.cpu.iq.FU_type_0::SimdSha256Hash2            0      0.00%     82.84% # Type of FU issued
system.cpu.iq.FU_type_0::SimdShaSigma2              0      0.00%     82.84% # Type of FU issued
system.cpu.iq.FU_type_0::SimdShaSigma3              0      0.00%     82.84% # Type of FU issued
system.cpu.iq.FU_type_0::SimdPredAlu                0      0.00%     82.84% # Type of FU issued
system.cpu.iq.FU_type_0::MemRead              1026052     10.99%     93.83% # Type of FU issued
system.cpu.iq.FU_type_0::MemWrite              447076      4.79%     98.62% # Type of FU issued
system.cpu.iq.FU_type_0::FloatMemRead           76639      0.82%     99.44% # Type of FU issued
system.cpu.iq.FU_type_0::FloatMemWrite          52608      0.56%    100.00% # Type of FU issued
system.cpu.iq.FU_type_0::IprAccess                  0      0.00%    100.00% # Type of FU issued
system.cpu.iq.FU_type_0::InstPrefetch               0      0.00%    100.00% # Type of FU issued
system.cpu.iq.FU_type_0::total                9338477                       # Type of FU issued
system.cpu.iq.fp_alu_accesses                  226415                       # Number of floating point alu accesses
system.cpu.iq.fp_inst_queue_reads              434982                       # Number of floating instruction queue reads
system.cpu.iq.fp_inst_queue_wakeup_accesses       194944                       # Number of floating instruction queue wakeup accesses
system.cpu.iq.fp_inst_queue_writes             353990                       # Number of floating instruction queue writes
system.cpu.iq.fu_busy_cnt                      138955                       # FU busy when requested
system.cpu.iq.fu_busy_rate                   0.014880                       # FU busy rate (busy events/executed inst)
system.cpu.iq.fu_full::No_OpClass                   0      0.00%      0.00% # attempts to use FU when none available
system.cpu.iq.fu_full::IntAlu                  111204     80.03%     80.03% # attempts to use FU when none available
system.cpu.iq.fu_full::IntMult                      0      0.00%     80.03% # attempts to use FU when none available
system.cpu.iq.fu_full::IntDiv                       0      0.00%     80.03% # attempts to use FU when none available
system.cpu.iq.fu_full::FloatAdd                     0      0.00%     80.03% # attempts to use FU when none available
system.cpu.iq.fu_full::FloatCmp                     0      0.00%     80.03% # attempts to use FU when none available
system.cpu.iq.fu_full::FloatCvt                     0      0.00%     80.03% # attempts to use FU when none available
system.cpu.iq.fu_full::FloatMult                    0      0.00%     80.03% # attempts to use FU when none available
system.cpu.iq.fu_full::FloatMultAcc                 0      0.00%     80.03% # attempts to use FU when none available
system.cpu.iq.fu_full::FloatDiv                     0      0.00%     80.03% # attempts to use FU when none available
system.cpu.iq.fu_full::FloatMisc                    0      0.00%     80.03% # attempts to use FU when none available
system.cpu.iq.fu_full::FloatSqrt                    0      0.00%     80.03% # attempts to use FU when none available
system.cpu.iq.fu_full::SimdAdd                      0      0.00%     80.03% # attempts to use FU when none available
system.cpu.iq.fu_full::SimdAddAcc                   0      0.00%     80.03% # attempts to use FU when none available
system.cpu.iq.fu_full::SimdAlu                    466      0.34%     80.36% # attempts to use FU when none available
system.cpu.iq.fu_full::SimdCmp                      0      0.00%     80.36% # attempts to use FU when none available
system.cpu.iq.fu_full::SimdCvt                     56      0.04%     80.40% # attempts to use FU when none available
system.cpu.iq.fu_full::SimdMisc                    90      0.06%     80.47% # attempts to use FU when none available
system.cpu.iq.fu_full::SimdMult                     0      0.00%     80.47% # attempts to use FU when none available
system.cpu.iq.fu_full::SimdMultAcc                  0      0.00%     80.47% # attempts to use FU when none available
system.cpu.iq.fu_full::SimdShift                    0      0.00%     80.47% # attempts to use FU when none available
system.cpu.iq.fu_full::SimdShiftAcc                 0      0.00%     80.47% # attempts to use FU when none available
system.cpu.iq.fu_full::SimdDiv                      0      0.00%     80.47% # attempts to use FU when none available
system.cpu.iq.fu_full::SimdSqrt                     0      0.00%     80.47% # attempts to use FU when none available
system.cpu.iq.fu_full::SimdFloatAdd                 0      0.00%     80.47% # attempts to use FU when none available
system.cpu.iq.fu_full::SimdFloatAlu                 0      0.00%     80.47% # attempts to use FU when none available
system.cpu.iq.fu_full::SimdFloatCmp                 0      0.00%     80.47% # attempts to use FU when none available
system.cpu.iq.fu_full::SimdFloatCvt                 0      0.00%     80.47% # attempts to use FU when none available
system.cpu.iq.fu_full::SimdFloatDiv                 0      0.00%     80.47% # attempts to use FU when none available
system.cpu.iq.fu_full::SimdFloatMisc                0      0.00%     80.47% # attempts to use FU when none available
system.cpu.iq.fu_full::SimdFloatMult                0      0.00%     80.47% # attempts to use FU when none available
system.cpu.iq.fu_full::SimdFloatMultAcc             0      0.00%     80.47% # attempts to use FU when none available
system.cpu.iq.fu_full::SimdFloatSqrt                0      0.00%     80.47% # attempts to use FU when none available
system.cpu.iq.fu_full::SimdReduceAdd                0      0.00%     80.47% # attempts to use FU when none available
system.cpu.iq.fu_full::SimdReduceAlu                0      0.00%     80.47% # attempts to use FU when none available
system.cpu.iq.fu_full::SimdReduceCmp                0      0.00%     80.47% # attempts to use FU when none available
system.cpu.iq.fu_full::SimdFloatReduceAdd            0      0.00%     80.47% # attempts to use FU when none available
system.cpu.iq.fu_full::SimdFloatReduceCmp            0      0.00%     80.47% # attempts to use FU when none available
system.cpu.iq.fu_full::SimdAes                      0      0.00%     80.47% # attempts to use FU when none available
system.cpu.iq.fu_full::SimdAesMix                   0      0.00%     80.47% # attempts to use FU when none available
system.cpu.iq.fu_full::SimdSha1Hash                 0      0.00%     80.47% # attempts to use FU when none available
system.cpu.iq.fu_full::SimdSha1Hash2                0      0.00%     80.47% # attempts to use FU when none available
system.cpu.iq.fu_full::SimdSha256Hash               0      0.00%     80.47% # attempts to use FU when none available
system.cpu.iq.fu_full::SimdSha256Hash2              0      0.00%     80.47% # attempts to use FU when none available
system.cpu.iq.fu_full::SimdShaSigma2                0      0.00%     80.47% # attempts to use FU when none available
system.cpu.iq.fu_full::SimdShaSigma3                0      0.00%     80.47% # attempts to use FU when none available
system.cpu.iq.fu_full::SimdPredAlu                  0      0.00%     80.47% # attempts to use FU when none available
system.cpu.iq.fu_full::MemRead                   3575      2.57%     83.04% # attempts to use FU when none available
system.cpu.iq.fu_full::MemWrite                  4983      3.59%     86.63% # attempts to use FU when none available
system.cpu.iq.fu_full::FloatMemRead             12702      9.14%     95.77% # attempts to use FU when none available
system.cpu.iq.fu_full::FloatMemWrite             5879      4.23%    100.00% # attempts to use FU when none available
system.cpu.iq.fu_full::IprAccess                    0      0.00%    100.00% # attempts to use FU when none available
system.cpu.iq.fu_full::InstPrefetch                 0      0.00%    100.00% # attempts to use FU when none available
system.cpu.iq.int_alu_accesses                9069320                       # Number of integer alu accesses
system.cpu.iq.int_inst_queue_reads           22394492                       # Number of integer instruction queue reads
system.cpu.iq.int_inst_queue_wakeup_accesses      8863343                       # Number of integer instruction queue wakeup accesses
system.cpu.iq.int_inst_queue_writes          13257716                       # Number of integer instruction queue writes
system.cpu.iq.iqInstsAdded                   10322154                       # Number of instructions added to the IQ (excludes non-spec)
system.cpu.iq.iqInstsIssued                   9338477                       # Number of instructions issued
system.cpu.iq.iqNonSpecInstsAdded                2675                       # Number of non-speculative instructions added to the IQ
system.cpu.iq.iqSquashedInstsExamined         3286567                       # Number of squashed instructions iterated over during squash; mainly for profiling
system.cpu.iq.iqSquashedInstsIssued             17666                       # Number of squashed instructions issued
system.cpu.iq.iqSquashedNonSpecRemoved           2460                       # Number of squashed non-spec instructions that were removed
system.cpu.iq.iqSquashedOperandsExamined      4189978                       # Number of squashed operands that are examined and possibly removed from graph
system.cpu.iq.issued_per_cycle::samples       3995899                       # Number of insts issued each cycle
system.cpu.iq.issued_per_cycle::mean         2.337015                       # Number of insts issued each cycle
system.cpu.iq.issued_per_cycle::stdev        2.362994                       # Number of insts issued each cycle
system.cpu.iq.issued_per_cycle::underflows            0      0.00%      0.00% # Number of insts issued each cycle
system.cpu.iq.issued_per_cycle::0             1488549     37.25%     37.25% # Number of insts issued each cycle
system.cpu.iq.issued_per_cycle::1              332403      8.32%     45.57% # Number of insts issued each cycle
system.cpu.iq.issued_per_cycle::2              474709     11.88%     57.45% # Number of insts issued each cycle
system.cpu.iq.issued_per_cycle::3              451276     11.29%     68.74% # Number of insts issued each cycle
system.cpu.iq.issued_per_cycle::4              400640     10.03%     78.77% # Number of insts issued each cycle
system.cpu.iq.issued_per_cycle::5              309832      7.75%     86.52% # Number of insts issued each cycle
system.cpu.iq.issued_per_cycle::6              288138      7.21%     93.73% # Number of insts issued each cycle
system.cpu.iq.issued_per_cycle::7              180536      4.52%     98.25% # Number of insts issued each cycle
system.cpu.iq.issued_per_cycle::8               69816      1.75%    100.00% # Number of insts issued each cycle
system.cpu.iq.issued_per_cycle::overflows            0      0.00%    100.00% # Number of insts issued each cycle
system.cpu.iq.issued_per_cycle::min_value            0                       # Number of insts issued each cycle
system.cpu.iq.issued_per_cycle::max_value            8                       # Number of insts issued each cycle
system.cpu.iq.issued_per_cycle::total         3995899                       # Number of insts issued each cycle
system.cpu.iq.rate                           2.257965                       # Inst issue rate
system.cpu.iq.vec_alu_accesses                      0                       # Number of vector alu accesses
system.cpu.iq.vec_inst_queue_reads                  0                       # Number of vector instruction queue reads
system.cpu.iq.vec_inst_queue_wakeup_accesses            0                       # Number of vector instruction queue wakeup accesses
system.cpu.iq.vec_inst_queue_writes                 0                       # Number of vector instruction queue writes
system.cpu.memDep0.conflictingLoads            224070                       # Number of conflicting loads.
system.cpu.memDep0.conflictingStores           153797                       # Number of conflicting stores.
system.cpu.memDep0.insertedLoads              1215340                       # Number of loads inserted to the mem dependence unit.
system.cpu.memDep0.insertedStores              618204                       # Number of stores inserted to the mem dependence unit.
system.cpu.misc_regfile_reads                 3396323                       # number of misc regfile reads
system.cpu.numCycles                          4135794                       # number of cpu cycles simulated
system.cpu.numWorkItemsCompleted                    0                       # number of work items this cpu completed
system.cpu.numWorkItemsStarted                      0                       # number of work items this cpu started
system.cpu.timesIdled                            4856                       # Number of times that the entire CPU went into an idle state and unscheduled itself
system.cpu.workload.numSyscalls                   419                       # Number of system calls
system.membus.snoop_filter.hit_multi_requests            0                       # Number of requests hitting in the snoop filter with multiple (>1) holders of the requested data.
system.membus.snoop_filter.hit_multi_snoops            0                       # Number of snoops hitting in the snoop filter with multiple (>1) holders of the requested data.
system.membus.snoop_filter.hit_single_requests           39                       # Number of requests hitting in the snoop filter with a single holder of the requested data.
system.membus.snoop_filter.hit_single_snoops            0                       # Number of snoops hitting in the snoop filter with a single holder of the requested data.
system.membus.snoop_filter.tot_requests          4867                       # Total number of requests made to the snoop filter.
system.membus.snoop_filter.tot_snoops               0                       # Total number of snoops made to the snoop filter.
system.tol2bus.snoop_filter.hit_multi_requests            5                       # Number of requests hitting in the snoop filter with multiple (>1) holders of the requested data.
system.tol2bus.snoop_filter.hit_multi_snoops            0                       # Number of snoops hitting in the snoop filter with multiple (>1) holders of the requested data.
system.tol2bus.snoop_filter.hit_single_requests        35846                       # Number of requests hitting in the snoop filter with a single holder of the requested data.
system.tol2bus.snoop_filter.hit_single_snoops           11                       # Number of snoops hitting in the snoop filter with a single holder of the requested data.
system.tol2bus.snoop_filter.tot_requests        72717                       # Total number of requests made to the snoop filter.
system.tol2bus.snoop_filter.tot_snoops             11                       # Total number of snoops made to the snoop filter.
system.membus.trans_dist::ReadResp               2016                       # Transaction distribution
system.membus.trans_dist::WritebackDirty           10                       # Transaction distribution
system.membus.trans_dist::CleanEvict               29                       # Transaction distribution
system.membus.trans_dist::ReadExReq              2812                       # Transaction distribution
system.membus.trans_dist::ReadExResp             2812                       # Transaction distribution
system.membus.trans_dist::ReadSharedReq          2016                       # Transaction distribution
system.membus.pkt_count_system.l2.mem_side_port::system.mem_ctrls.port         9695                       # Packet count per connected requestor and responder (bytes)
system.membus.pkt_count_system.l2.mem_side_port::total         9695                       # Packet count per connected requestor and responder (bytes)
system.membus.pkt_count::total                   9695                       # Packet count per connected requestor and responder (bytes)
system.membus.pkt_size_system.l2.mem_side_port::system.mem_ctrls.port       309632                       # Cumulative packet size per connected requestor and responder (bytes)
system.membus.pkt_size_system.l2.mem_side_port::total       309632                       # Cumulative packet size per connected requestor and responder (bytes)
system.membus.pkt_size::total                  309632                       # Cumulative packet size per connected requestor and responder (bytes)
system.membus.snoops                                0                       # Total snoops (count)
system.membus.snoopTraffic                          0                       # Total snoop traffic (bytes)
system.membus.snoop_fanout::samples              4828                       # Request fanout histogram
system.membus.snoop_fanout::mean                    0                       # Request fanout histogram
system.membus.snoop_fanout::stdev                   0                       # Request fanout histogram
system.membus.snoop_fanout::underflows              0      0.00%      0.00% # Request fanout histogram
system.membus.snoop_fanout::0                    4828    100.00%    100.00% # Request fanout histogram
system.membus.snoop_fanout::1                       0      0.00%    100.00% # Request fanout histogram
system.membus.snoop_fanout::overflows               0      0.00%    100.00% # Request fanout histogram
system.membus.snoop_fanout::min_value               0                       # Request fanout histogram
system.membus.snoop_fanout::max_value               0                       # Request fanout histogram
system.membus.snoop_fanout::total                4828                       # Request fanout histogram
system.membus.reqLayer2.occupancy             5921500                       # Layer occupancy (ticks)
system.membus.reqLayer2.utilization               0.3                       # Layer utilization (%)
system.membus.respLayer1.occupancy           25569750                       # Layer occupancy (ticks)
system.membus.respLayer1.utilization              1.2                       # Layer utilization (%)
system.membus.power_state.pwrStateResidencyTicks::UNDEFINED   2067896500                       # Cumulative time (in ticks) in various power states
system.tol2bus.trans_dist::ReadResp             26639                       # Transaction distribution
system.tol2bus.trans_dist::WritebackDirty        24627                       # Transaction distribution
system.tol2bus.trans_dist::WritebackClean        10140                       # Transaction distribution
system.tol2bus.trans_dist::CleanEvict            1127                       # Transaction distribution
system.tol2bus.trans_dist::ReadExReq            10231                       # Transaction distribution
system.tol2bus.trans_dist::ReadExResp           10231                       # Transaction distribution
system.tol2bus.trans_dist::ReadCleanReq         10653                       # Transaction distribution
system.tol2bus.trans_dist::ReadSharedReq        15987                       # Transaction distribution
system.tol2bus.pkt_count_system.cpu.icache.mem_side_port::system.l2.cpu_side_port        31445                       # Packet count per connected requestor and responder (bytes)
system.tol2bus.pkt_count_system.cpu.dcache.mem_side_port::system.l2.cpu_side_port        78142                       # Packet count per connected requestor and responder (bytes)
system.tol2bus.pkt_count::total                109587                       # Packet count per connected requestor and responder (bytes)
system.tol2bus.pkt_size_system.cpu.icache.mem_side_port::system.l2.cpu_side_port      1330688                       # Cumulative packet size per connected requestor and responder (bytes)
system.tol2bus.pkt_size_system.cpu.dcache.mem_side_port::system.l2.cpu_side_port      3253440                       # Cumulative packet size per connected requestor and responder (bytes)
system.tol2bus.pkt_size::total                4584128                       # Cumulative packet size per connected requestor and responder (bytes)
system.tol2bus.snoops                              48                       # Total snoops (count)
system.tol2bus.snoopTraffic                       640                       # Total snoop traffic (bytes)
system.tol2bus.snoop_fanout::samples            36919                       # Request fanout histogram
system.tol2bus.snoop_fanout::mean            0.000433                       # Request fanout histogram
system.tol2bus.snoop_fanout::stdev           0.020814                       # Request fanout histogram
system.tol2bus.snoop_fanout::underflows             0      0.00%      0.00% # Request fanout histogram
system.tol2bus.snoop_fanout::0                  36903     99.96%     99.96% # Request fanout histogram
system.tol2bus.snoop_fanout::1                     16      0.04%    100.00% # Request fanout histogram
system.tol2bus.snoop_fanout::2                      0      0.00%    100.00% # Request fanout histogram
system.tol2bus.snoop_fanout::3                      0      0.00%    100.00% # Request fanout histogram
system.tol2bus.snoop_fanout::4                      0      0.00%    100.00% # Request fanout histogram
system.tol2bus.snoop_fanout::overflows              0      0.00%    100.00% # Request fanout histogram
system.tol2bus.snoop_fanout::min_value              0                       # Request fanout histogram
system.tol2bus.snoop_fanout::max_value              1                       # Request fanout histogram
system.tol2bus.snoop_fanout::total              36919                       # Request fanout histogram
system.tol2bus.reqLayer0.occupancy           71115500                       # Layer occupancy (ticks)
system.tol2bus.reqLayer0.utilization              3.4                       # Layer utilization (%)
system.tol2bus.respLayer1.occupancy          39327499                       # Layer occupancy (ticks)
system.tol2bus.respLayer1.utilization             1.9                       # Layer utilization (%)
system.tol2bus.respLayer0.occupancy          15980994                       # Layer occupancy (ticks)
system.tol2bus.respLayer0.utilization             0.8                       # Layer utilization (%)
system.tol2bus.power_state.pwrStateResidencyTicks::UNDEFINED   2067896500                       # Cumulative time (in ticks) in various power states
system.voltage_domain.voltage                       1                       # Voltage in Volts
system.clk_domain.clock                          1000                       # Clock period in ticks
system.l2.demand_hits::.cpu.inst                 8893                       # number of demand (read+write) hits
system.l2.demand_hits::.cpu.data                23148                       # number of demand (read+write) hits
system.l2.demand_hits::total                    32041                       # number of demand (read+write) hits
system.l2.overall_hits::.cpu.inst                8893                       # number of overall hits
system.l2.overall_hits::.cpu.data               23148                       # number of overall hits
system.l2.overall_hits::total                   32041                       # number of overall hits
system.l2.demand_misses::.cpu.inst               1760                       # number of demand (read+write) misses
system.l2.demand_misses::.cpu.data               3070                       # number of demand (read+write) misses
system.l2.demand_misses::total                   4830                       # number of demand (read+write) misses
system.l2.overall_misses::.cpu.inst              1760                       # number of overall misses
system.l2.overall_misses::.cpu.data              3070                       # number of overall misses
system.l2.overall_misses::total                  4830                       # number of overall misses
system.l2.demand_miss_latency::.cpu.inst    138851500                       # number of demand (read+write) miss cycles
system.l2.demand_miss_latency::.cpu.data    234054000                       # number of demand (read+write) miss cycles
system.l2.demand_miss_latency::total        372905500                       # number of demand (read+write) miss cycles
system.l2.overall_miss_latency::.cpu.inst    138851500                       # number of overall miss cycles
system.l2.overall_miss_latency::.cpu.data    234054000                       # number of overall miss cycles
system.l2.overall_miss_latency::total       372905500                       # number of overall miss cycles
system.l2.demand_accesses::.cpu.inst            10653                       # number of demand (read+write) accesses
system.l2.demand_accesses::.cpu.data            26218                       # number of demand (read+write) accesses
system.l2.demand_accesses::total                36871                       # number of demand (read+write) accesses
system.l2.overall_accesses::.cpu.inst           10653                       # number of overall (read+write) accesses
system.l2.overall_accesses::.cpu.data           26218                       # number of overall (read+write) accesses
system.l2.overall_accesses::total               36871                       # number of overall (read+write) accesses
system.l2.demand_miss_rate::.cpu.inst        0.165212                       # miss rate for demand accesses
system.l2.demand_miss_rate::.cpu.data        0.117095                       # miss rate for demand accesses
system.l2.demand_miss_rate::total            0.130997                       # miss rate for demand accesses
system.l2.overall_miss_rate::.cpu.inst       0.165212                       # miss rate for overall accesses
system.l2.overall_miss_rate::.cpu.data       0.117095                       # miss rate for overall accesses
system.l2.overall_miss_rate::total           0.130997                       # miss rate for overall accesses
system.l2.demand_avg_miss_latency::.cpu.inst 78892.897727                       # average overall miss latency
system.l2.demand_avg_miss_latency::.cpu.data 76239.087948                       # average overall miss latency
system.l2.demand_avg_miss_latency::total 77206.107660                       # average overall miss latency
system.l2.overall_avg_miss_latency::.cpu.inst 78892.897727                       # average overall miss latency
system.l2.overall_avg_miss_latency::.cpu.data 76239.087948                       # average overall miss latency
system.l2.overall_avg_miss_latency::total 77206.107660                       # average overall miss latency
system.l2.blocked_cycles::no_mshrs                  0                       # number of cycles access was blocked
system.l2.blocked_cycles::no_targets                0                       # number of cycles access was blocked
system.l2.blocked::no_mshrs                         0                       # number of cycles access was blocked
system.l2.blocked::no_targets                       0                       # number of cycles access was blocked
system.l2.avg_blocked_cycles::no_mshrs            nan                       # average number of cycles each access was blocked
system.l2.avg_blocked_cycles::no_targets          nan                       # average number of cycles each access was blocked
system.l2.writebacks::.writebacks                  10                       # number of writebacks
system.l2.writebacks::total                        10                       # number of writebacks
system.l2.demand_mshr_hits::.cpu.data               1                       # number of demand (read+write) MSHR hits
system.l2.demand_mshr_hits::total                   1                       # number of demand (read+write) MSHR hits
system.l2.overall_mshr_hits::.cpu.data              1                       # number of overall MSHR hits
system.l2.overall_mshr_hits::total                  1                       # number of overall MSHR hits
system.l2.demand_mshr_misses::.cpu.inst          1760                       # number of demand (read+write) MSHR misses
system.l2.demand_mshr_misses::.cpu.data          3069                       # number of demand (read+write) MSHR misses
system.l2.demand_mshr_misses::total              4829                       # number of demand (read+write) MSHR misses
system.l2.overall_mshr_misses::.cpu.inst         1760                       # number of overall MSHR misses
system.l2.overall_mshr_misses::.cpu.data         3069                       # number of overall MSHR misses
system.l2.overall_mshr_misses::total             4829                       # number of overall MSHR misses
system.l2.demand_mshr_miss_latency::.cpu.inst    121261500                       # number of demand (read+write) MSHR miss cycles
system.l2.demand_mshr_miss_latency::.cpu.data    203269500                       # number of demand (read+write) MSHR miss cycles
system.l2.demand_mshr_miss_latency::total    324531000                       # number of demand (read+write) MSHR miss cycles
system.l2.overall_mshr_miss_latency::.cpu.inst    121261500                       # number of overall MSHR miss cycles
system.l2.overall_mshr_miss_latency::.cpu.data    203269500                       # number of overall MSHR miss cycles
system.l2.overall_mshr_miss_latency::total    324531000                       # number of overall MSHR miss cycles
system.l2.demand_mshr_miss_rate::.cpu.inst     0.165212                       # mshr miss rate for demand accesses
system.l2.demand_mshr_miss_rate::.cpu.data     0.117057                       # mshr miss rate for demand accesses
system.l2.demand_mshr_miss_rate::total       0.130970                       # mshr miss rate for demand accesses
system.l2.overall_mshr_miss_rate::.cpu.inst     0.165212                       # mshr miss rate for overall accesses
system.l2.overall_mshr_miss_rate::.cpu.data     0.117057                       # mshr miss rate for overall accesses
system.l2.overall_mshr_miss_rate::total      0.130970                       # mshr miss rate for overall accesses
system.l2.demand_avg_mshr_miss_latency::.cpu.inst 68898.579545                       # average overall mshr miss latency
system.l2.demand_avg_mshr_miss_latency::.cpu.data 66233.137830                       # average overall mshr miss latency
system.l2.demand_avg_mshr_miss_latency::total 67204.597225                       # average overall mshr miss latency
system.l2.overall_avg_mshr_miss_latency::.cpu.inst 68898.579545                       # average overall mshr miss latency
system.l2.overall_avg_mshr_miss_latency::.cpu.data 66233.137830                       # average overall mshr miss latency
system.l2.overall_avg_mshr_miss_latency::total 67204.597225                       # average overall mshr miss latency
system.l2.replacements                             48                       # number of replacements
system.l2.WritebackDirty_hits::.writebacks        24617                       # number of WritebackDirty hits
system.l2.WritebackDirty_hits::total            24617                       # number of WritebackDirty hits
system.l2.WritebackDirty_accesses::.writebacks        24617                       # number of WritebackDirty accesses(hits+misses)
system.l2.WritebackDirty_accesses::total        24617                       # number of WritebackDirty accesses(hits+misses)
system.l2.WritebackClean_hits::.writebacks        10138                       # number of WritebackClean hits
system.l2.WritebackClean_hits::total            10138                       # number of WritebackClean hits
system.l2.WritebackClean_accesses::.writebacks        10138                       # number of WritebackClean accesses(hits+misses)
system.l2.WritebackClean_accesses::total        10138                       # number of WritebackClean accesses(hits+misses)
system.l2.CleanEvict_mshr_misses::.writebacks            2                       # number of CleanEvict MSHR misses
system.l2.CleanEvict_mshr_misses::total             2                       # number of CleanEvict MSHR misses
system.l2.CleanEvict_mshr_miss_rate::.writebacks          inf                       # mshr miss rate for CleanEvict accesses
system.l2.CleanEvict_mshr_miss_rate::total          inf                       # mshr miss rate for CleanEvict accesses
system.l2.ReadExReq_hits::.cpu.data              7419                       # number of ReadExReq hits
system.l2.ReadExReq_hits::total                  7419                       # number of ReadExReq hits
system.l2.ReadExReq_misses::.cpu.data            2812                       # number of ReadExReq misses
system.l2.ReadExReq_misses::total                2812                       # number of ReadExReq misses
system.l2.ReadExReq_miss_latency::.cpu.data    212218000                       # number of ReadExReq miss cycles
system.l2.ReadExReq_miss_latency::total     212218000                       # number of ReadExReq miss cycles
system.l2.ReadExReq_accesses::.cpu.data         10231                       # number of ReadExReq accesses(hits+misses)
system.l2.ReadExReq_accesses::total             10231                       # number of ReadExReq accesses(hits+misses)
system.l2.ReadExReq_miss_rate::.cpu.data     0.274851                       # miss rate for ReadExReq accesses
system.l2.ReadExReq_miss_rate::total         0.274851                       # miss rate for ReadExReq accesses
system.l2.ReadExReq_avg_miss_latency::.cpu.data 75468.705548                       # average ReadExReq miss latency
system.l2.ReadExReq_avg_miss_latency::total 75468.705548                       # average ReadExReq miss latency
system.l2.ReadExReq_mshr_misses::.cpu.data         2812                       # number of ReadExReq MSHR misses
system.l2.ReadExReq_mshr_misses::total           2812                       # number of ReadExReq MSHR misses
system.l2.ReadExReq_mshr_miss_latency::.cpu.data    184098000                       # number of ReadExReq MSHR miss cycles
system.l2.ReadExReq_mshr_miss_latency::total    184098000                       # number of ReadExReq MSHR miss cycles
system.l2.ReadExReq_mshr_miss_rate::.cpu.data     0.274851                       # mshr miss rate for ReadExReq accesses
system.l2.ReadExReq_mshr_miss_rate::total     0.274851                       # mshr miss rate for ReadExReq accesses
system.l2.ReadExReq_avg_mshr_miss_latency::.cpu.data 65468.705548                       # average ReadExReq mshr miss latency
system.l2.ReadExReq_avg_mshr_miss_latency::total 65468.705548                       # average ReadExReq mshr miss latency
system.l2.ReadCleanReq_hits::.cpu.inst           8893                       # number of ReadCleanReq hits
system.l2.ReadCleanReq_hits::total               8893                       # number of ReadCleanReq hits
system.l2.ReadCleanReq_misses::.cpu.inst         1760                       # number of ReadCleanReq misses
system.l2.ReadCleanReq_misses::total             1760                       # number of ReadCleanReq misses
system.l2.ReadCleanReq_miss_latency::.cpu.inst    138851500                       # number of ReadCleanReq miss cycles
system.l2.ReadCleanReq_miss_latency::total    138851500                       # number of ReadCleanReq miss cycles
system.l2.ReadCleanReq_accesses::.cpu.inst        10653                       # number of ReadCleanReq accesses(hits+misses)
system.l2.ReadCleanReq_accesses::total          10653                       # number of ReadCleanReq accesses(hits+misses)
system.l2.ReadCleanReq_miss_rate::.cpu.inst     0.165212                       # miss rate for ReadCleanReq accesses
system.l2.ReadCleanReq_miss_rate::total      0.165212                       # miss rate for ReadCleanReq accesses
system.l2.ReadCleanReq_avg_miss_latency::.cpu.inst 78892.897727                       # average ReadCleanReq miss latency
system.l2.ReadCleanReq_avg_miss_latency::total 78892.897727                       # average ReadCleanReq miss latency
system.l2.ReadCleanReq_mshr_misses::.cpu.inst         1760                       # number of ReadCleanReq MSHR misses
system.l2.ReadCleanReq_mshr_misses::total         1760                       # number of ReadCleanReq MSHR misses
system.l2.ReadCleanReq_mshr_miss_latency::.cpu.inst    121261500                       # number of ReadCleanReq MSHR miss cycles
system.l2.ReadCleanReq_mshr_miss_latency::total    121261500                       # number of ReadCleanReq MSHR miss cycles
system.l2.ReadCleanReq_mshr_miss_rate::.cpu.inst     0.165212                       # mshr miss rate for ReadCleanReq accesses
system.l2.ReadCleanReq_mshr_miss_rate::total     0.165212                       # mshr miss rate for ReadCleanReq accesses
system.l2.ReadCleanReq_avg_mshr_miss_latency::.cpu.inst 68898.579545                       # average ReadCleanReq mshr miss latency
system.l2.ReadCleanReq_avg_mshr_miss_latency::total 68898.579545                       # average ReadCleanReq mshr miss latency
system.l2.ReadSharedReq_hits::.cpu.data         15729                       # number of ReadSharedReq hits
system.l2.ReadSharedReq_hits::total             15729                       # number of ReadSharedReq hits
system.l2.ReadSharedReq_misses::.cpu.data          258                       # number of ReadSharedReq misses
system.l2.ReadSharedReq_misses::total             258                       # number of ReadSharedReq misses
system.l2.ReadSharedReq_miss_latency::.cpu.data     21836000                       # number of ReadSharedReq miss cycles
system.l2.ReadSharedReq_miss_latency::total     21836000                       # number of ReadSharedReq miss cycles
system.l2.ReadSharedReq_accesses::.cpu.data        15987                       # number of ReadSharedReq accesses(hits+misses)
system.l2.ReadSharedReq_accesses::total         15987                       # number of ReadSharedReq accesses(hits+misses)
system.l2.ReadSharedReq_miss_rate::.cpu.data     0.016138                       # miss rate for ReadSharedReq accesses
system.l2.ReadSharedReq_miss_rate::total     0.016138                       # miss rate for ReadSharedReq accesses
system.l2.ReadSharedReq_avg_miss_latency::.cpu.data 84635.658915                       # average ReadSharedReq miss latency
system.l2.ReadSharedReq_avg_miss_latency::total 84635.658915                       # average ReadSharedReq miss latency
system.l2.ReadSharedReq_mshr_hits::.cpu.data            1                       # number of ReadSharedReq MSHR hits
system.l2.ReadSharedReq_mshr_hits::total            1                       # number of ReadSharedReq MSHR hits
system.l2.ReadSharedReq_mshr_misses::.cpu.data          257                       # number of ReadSharedReq MSHR misses
system.l2.ReadSharedReq_mshr_misses::total          257                       # number of ReadSharedReq MSHR misses
system.l2.ReadSharedReq_mshr_miss_latency::.cpu.data     19171500                       # number of ReadSharedReq MSHR miss cycles
system.l2.ReadSharedReq_mshr_miss_latency::total     19171500                       # number of ReadSharedReq MSHR miss cycles
system.l2.ReadSharedReq_mshr_miss_rate::.cpu.data     0.016076                       # mshr miss rate for ReadSharedReq accesses
system.l2.ReadSharedReq_mshr_miss_rate::total     0.016076                       # mshr miss rate for ReadSharedReq accesses
system.l2.ReadSharedReq_avg_mshr_miss_latency::.cpu.data 74597.276265                       # average ReadSharedReq mshr miss latency
system.l2.ReadSharedReq_avg_mshr_miss_latency::total 74597.276265                       # average ReadSharedReq mshr miss latency
system.l2.power_state.pwrStateResidencyTicks::UNDEFINED   2067896500                       # Cumulative time (in ticks) in various power states
system.l2.tags.tagsinuse                  3684.375323                       # Cycle average of tags in use
system.l2.tags.total_refs                       72708                       # Total number of references to valid blocks.
system.l2.tags.sampled_refs                      4836                       # Sample count of references to valid blocks.
system.l2.tags.avg_refs                     15.034739                       # Average number of references to valid blocks.
system.l2.tags.warmup_cycle                     77000                       # Cycle when the warmup percentage was hit.
system.l2.tags.occ_blocks::.writebacks       2.678270                       # Average occupied blocks per requestor
system.l2.tags.occ_blocks::.cpu.inst      1419.570799                       # Average occupied blocks per requestor
system.l2.tags.occ_blocks::.cpu.data      2262.126254                       # Average occupied blocks per requestor
system.l2.tags.occ_percent::.writebacks      0.000163                       # Average percentage of cache occupancy
system.l2.tags.occ_percent::.cpu.inst        0.086644                       # Average percentage of cache occupancy
system.l2.tags.occ_percent::.cpu.data        0.138069                       # Average percentage of cache occupancy
system.l2.tags.occ_percent::total            0.224876                       # Average percentage of cache occupancy
system.l2.tags.occ_task_id_blocks::1024          4788                       # Occupied blocks per task id
system.l2.tags.age_task_id_blocks_1024::0           82                       # Occupied blocks per task id
system.l2.tags.age_task_id_blocks_1024::1            1                       # Occupied blocks per task id
system.l2.tags.age_task_id_blocks_1024::2          415                       # Occupied blocks per task id
system.l2.tags.age_task_id_blocks_1024::3         4290                       # Occupied blocks per task id
system.l2.tags.occ_task_id_percent::1024     0.292236                       # Percentage of cache occupancy per task id
system.l2.tags.tag_accesses                    150260                       # Number of tag accesses
system.l2.tags.data_accesses                   150260                       # Number of data accesses
system.l2.tags.power_state.pwrStateResidencyTicks::UNDEFINED   2067896500                       # Cumulative time (in ticks) in various power states
system.cpu_voltage_domain.voltage                   1                       # Voltage in Volts
system.mem_ctrls.avgPriority_.writebacks::samples        10.00                       # Average QoS priority value for accepted requests
system.mem_ctrls.avgPriority_.cpu.inst::samples      1759.00                       # Average QoS priority value for accepted requests
system.mem_ctrls.avgPriority_.cpu.data::samples      3068.00                       # Average QoS priority value for accepted requests
system.mem_ctrls.priorityMinLatency      0.000000018750                       # per QoS priority minimum request to response latency (s)
system.mem_ctrls.priorityMaxLatency      0.000000601000                       # per QoS priority maximum request to response latency (s)
system.mem_ctrls.numReadWriteTurnArounds            0                       # Number of turnarounds from READ to WRITE
system.mem_ctrls.numWriteReadTurnArounds            0                       # Number of turnarounds from WRITE to READ
system.mem_ctrls.numStayReadState               10132                       # Number of times bus staying in READ state
system.mem_ctrls.numStayWriteState                  0                       # Number of times bus staying in WRITE state
system.mem_ctrls.readReqs                        4828                       # Number of read requests accepted
system.mem_ctrls.writeReqs                         10                       # Number of write requests accepted
system.mem_ctrls.readBursts                      4828                       # Number of controller read bursts, including those serviced by the write queue
system.mem_ctrls.writeBursts                       10                       # Number of controller write bursts, including those merged in the write queue
system.mem_ctrls.servicedByWrQ                      1                       # Number of controller read bursts serviced by the write queue
system.mem_ctrls.mergedWrBursts                     0                       # Number of controller write bursts merged with an existing one
system.mem_ctrls.neitherReadNorWriteReqs            0                       # Number of requests that are neither read nor write
system.mem_ctrls.avgRdQLen                       1.04                       # Average read queue length when enqueuing
system.mem_ctrls.avgWrQLen                       2.41                       # Average write queue length when enqueuing
system.mem_ctrls.numRdRetry                         0                       # Number of times read queue was full causing retry
system.mem_ctrls.numWrRetry                         0                       # Number of times write queue was full causing retry
system.mem_ctrls.readPktSize::0                     0                       # Read request sizes (log2)
system.mem_ctrls.readPktSize::1                     0                       # Read request sizes (log2)
system.mem_ctrls.readPktSize::2                     0                       # Read request sizes (log2)
system.mem_ctrls.readPktSize::3                     0                       # Read request sizes (log2)
system.mem_ctrls.readPktSize::4                     0                       # Read request sizes (log2)
system.mem_ctrls.readPktSize::5                     0                       # Read request sizes (log2)
system.mem_ctrls.readPktSize::6                  4828                       # Read request sizes (log2)
system.mem_ctrls.writePktSize::0                    0                       # Write request sizes (log2)
system.mem_ctrls.writePktSize::1                    0                       # Write request sizes (log2)
system.mem_ctrls.writePktSize::2                    0                       # Write request sizes (log2)
system.mem_ctrls.writePktSize::3                    0                       # Write request sizes (log2)
system.mem_ctrls.writePktSize::4                    0                       # Write request sizes (log2)
system.mem_ctrls.writePktSize::5                    0                       # Write request sizes (log2)
system.mem_ctrls.writePktSize::6                   10                       # Write request sizes (log2)
system.mem_ctrls.rdQLenPdf::0                    4057                       # What read queue length does an incoming req see
system.mem_ctrls.rdQLenPdf::1                     592                       # What read queue length does an incoming req see
system.mem_ctrls.rdQLenPdf::2                     143                       # What read queue length does an incoming req see
system.mem_ctrls.rdQLenPdf::3                      27                       # What read queue length does an incoming req see
system.mem_ctrls.rdQLenPdf::4                       8                       # What read queue length does an incoming req see
system.mem_ctrls.rdQLenPdf::5                       0                       # What read queue length does an incoming req see
system.mem_ctrls.rdQLenPdf::6                       0                       # What read queue length does an incoming req see
system.mem_ctrls.rdQLenPdf::7                       0                       # What read queue length does an incoming req see
system.mem_ctrls.rdQLenPdf::8                       0                       # What read queue length does an incoming req see
system.mem_ctrls.rdQLenPdf::9                       0                       # What read queue length does an incoming req see
system.mem_ctrls.rdQLenPdf::10                      0                       # What read queue length does an incoming req see
system.mem_ctrls.rdQLenPdf::11                      0                       # What read queue length does an incoming req see
system.mem_ctrls.rdQLenPdf::12                      0                       # What read queue length does an incoming req see
system.mem_ctrls.rdQLenPdf::13                      0                       # What read queue length does an incoming req see
system.mem_ctrls.rdQLenPdf::14                      0                       # What read queue length does an incoming req see
system.mem_ctrls.rdQLenPdf::15                      0                       # What read queue length does an incoming req see
system.mem_ctrls.rdQLenPdf::16                      0                       # What read queue length does an incoming req see
system.mem_ctrls.rdQLenPdf::17                      0                       # What read queue length does an incoming req see
system.mem_ctrls.rdQLenPdf::18                      0                       # What read queue length does an incoming req see
system.mem_ctrls.rdQLenPdf::19                      0                       # What read queue length does an incoming req see
system.mem_ctrls.rdQLenPdf::20                      0                       # What read queue length does an incoming req see
system.mem_ctrls.rdQLenPdf::21                      0                       # What read queue length does an incoming req see
system.mem_ctrls.rdQLenPdf::22                      0                       # What read queue length does an incoming req see
system.mem_ctrls.rdQLenPdf::23                      0                       # What read queue length does an incoming req see
system.mem_ctrls.rdQLenPdf::24                      0                       # What read queue length does an incoming req see
system.mem_ctrls.rdQLenPdf::25                      0                       # What read queue length does an incoming req see
system.mem_ctrls.rdQLenPdf::26                      0                       # What read queue length does an incoming req see
system.mem_ctrls.rdQLenPdf::27                      0                       # What read queue length does an incoming req see
system.mem_ctrls.rdQLenPdf::28                      0                       # What read queue length does an incoming req see
system.mem_ctrls.rdQLenPdf::29                      0                       # What read queue length does an incoming req see
system.mem_ctrls.rdQLenPdf::30                      0                       # What read queue length does an incoming req see
system.mem_ctrls.rdQLenPdf::31                      0                       # What read queue length does an incoming req see
system.mem_ctrls.wrQLenPdf::0                       1                       # What write queue length does an incoming req see
system.mem_ctrls.wrQLenPdf::1                       1                       # What write queue length does an incoming req see
system.mem_ctrls.wrQLenPdf::2                       1                       # What write queue length does an incoming req see
system.mem_ctrls.wrQLenPdf::3                       1                       # What write queue length does an incoming req see
system.mem_ctrls.wrQLenPdf::4                       1                       # What write queue length does an incoming req see
system.mem_ctrls.wrQLenPdf::5                       1                       # What write queue length does an incoming req see
system.mem_ctrls.wrQLenPdf::6                       1                       # What write queue length does an incoming req see
system.mem_ctrls.wrQLenPdf::7                       1                       # What write queue length does an incoming req see
system.mem_ctrls.wrQLenPdf::8                       1                       # What write queue length does an incoming req see
system.mem_ctrls.wrQLenPdf::9                       1                       # What write queue length does an incoming req see
system.mem_ctrls.wrQLenPdf::10                      0                       # What write queue length does an incoming req see
system.mem_ctrls.wrQLenPdf::11                      0                       # What write queue length does an incoming req see
system.mem_ctrls.wrQLenPdf::12                      0                       # What write queue length does an incoming req see
system.mem_ctrls.wrQLenPdf::13                      0                       # What write queue length does an incoming req see
system.mem_ctrls.wrQLenPdf::14                      0                       # What write queue length does an incoming req see
system.mem_ctrls.wrQLenPdf::15                      0                       # What write queue length does an incoming req see
system.mem_ctrls.wrQLenPdf::16                      0                       # What write queue length does an incoming req see
system.mem_ctrls.wrQLenPdf::17                      0                       # What write queue length does an incoming req see
system.mem_ctrls.wrQLenPdf::18                      0                       # What write queue length does an incoming req see
system.mem_ctrls.wrQLenPdf::19                      0                       # What write queue length does an incoming req see
system.mem_ctrls.wrQLenPdf::20                      0                       # What write queue length does an incoming req see
system.mem_ctrls.wrQLenPdf::21                      0                       # What write queue length does an incoming req see
system.mem_ctrls.wrQLenPdf::22                      0                       # What write queue length does an incoming req see
system.mem_ctrls.wrQLenPdf::23                      0                       # What write queue length does an incoming req see
system.mem_ctrls.wrQLenPdf::24                      0                       # What write queue length does an incoming req see
system.mem_ctrls.wrQLenPdf::25                      0                       # What write queue length does an incoming req see
system.mem_ctrls.wrQLenPdf::26                      0                       # What write queue length does an incoming req see
system.mem_ctrls.wrQLenPdf::27                      0                       # What write queue length does an incoming req see
system.mem_ctrls.wrQLenPdf::28                      0                       # What write queue length does an incoming req see
system.mem_ctrls.wrQLenPdf::29                      0                       # What write queue length does an incoming req see
system.mem_ctrls.wrQLenPdf::30                      0                       # What write queue length does an incoming req see
system.mem_ctrls.wrQLenPdf::31                      0                       # What write queue length does an incoming req see
system.mem_ctrls.wrQLenPdf::32                      0                       # What write queue length does an incoming req see
system.mem_ctrls.wrQLenPdf::33                      0                       # What write queue length does an incoming req see
system.mem_ctrls.wrQLenPdf::34                      0                       # What write queue length does an incoming req see
system.mem_ctrls.wrQLenPdf::35                      0                       # What write queue length does an incoming req see
system.mem_ctrls.wrQLenPdf::36                      0                       # What write queue length does an incoming req see
system.mem_ctrls.wrQLenPdf::37                      0                       # What write queue length does an incoming req see
system.mem_ctrls.wrQLenPdf::38                      0                       # What write queue length does an incoming req see
system.mem_ctrls.wrQLenPdf::39                      0                       # What write queue length does an incoming req see
system.mem_ctrls.wrQLenPdf::40                      0                       # What write queue length does an incoming req see
system.mem_ctrls.wrQLenPdf::41                      0                       # What write queue length does an incoming req see
system.mem_ctrls.wrQLenPdf::42                      0                       # What write queue length does an incoming req see
system.mem_ctrls.wrQLenPdf::43                      0                       # What write queue length does an incoming req see
system.mem_ctrls.wrQLenPdf::44                      0                       # What write queue length does an incoming req see
system.mem_ctrls.wrQLenPdf::45                      0                       # What write queue length does an incoming req see
system.mem_ctrls.wrQLenPdf::46                      0                       # What write queue length does an incoming req see
system.mem_ctrls.wrQLenPdf::47                      0                       # What write queue length does an incoming req see
system.mem_ctrls.wrQLenPdf::48                      0                       # What write queue length does an incoming req see
system.mem_ctrls.wrQLenPdf::49                      0                       # What write queue length does an incoming req see
system.mem_ctrls.wrQLenPdf::50                      0                       # What write queue length does an incoming req see
system.mem_ctrls.wrQLenPdf::51                      0                       # What write queue length does an incoming req see
system.mem_ctrls.wrQLenPdf::52                      0                       # What write queue length does an incoming req see
system.mem_ctrls.wrQLenPdf::53                      0                       # What write queue length does an incoming req see
system.mem_ctrls.wrQLenPdf::54                      0                       # What write queue length does an incoming req see
system.mem_ctrls.wrQLenPdf::55                      0                       # What write queue length does an incoming req see
system.mem_ctrls.wrQLenPdf::56                      0                       # What write queue length does an incoming req see
system.mem_ctrls.wrQLenPdf::57                      0                       # What write queue length does an incoming req see
system.mem_ctrls.wrQLenPdf::58                      0                       # What write queue length does an incoming req see
system.mem_ctrls.wrQLenPdf::59                      0                       # What write queue length does an incoming req see
system.mem_ctrls.wrQLenPdf::60                      0                       # What write queue length does an incoming req see
system.mem_ctrls.wrQLenPdf::61                      0                       # What write queue length does an incoming req see
system.mem_ctrls.wrQLenPdf::62                      0                       # What write queue length does an incoming req see
system.mem_ctrls.wrQLenPdf::63                      0                       # What write queue length does an incoming req see
system.mem_ctrls.bytesReadWrQ                      64                       # Total number of bytes read from write queue
system.mem_ctrls.bytesReadSys                  308992                       # Total read bytes from the system interface side
system.mem_ctrls.bytesWrittenSys                  640                       # Total written bytes from the system interface side
system.mem_ctrls.avgRdBWSys                    149.42                       # Average system read bandwidth in MiByte/s
system.mem_ctrls.avgWrBWSys                      0.31                       # Average system write bandwidth in MiByte/s
system.mem_ctrls.totGap                    2067819000                       # Total gap between requests
system.mem_ctrls.avgGap                     427411.95                       # Average gap between requests
system.mem_ctrls.requestorReadBytes::.cpu.inst       112576                       # Per-requestor bytes read from memory
system.mem_ctrls.requestorReadBytes::.cpu.data       196352                       # Per-requestor bytes read from memory
system.mem_ctrls.requestorReadRate::.cpu.inst 54439861.956340663135                       # Per-requestor bytes read from memory rate (Bytes/sec)
system.mem_ctrls.requestorReadRate::.cpu.data 94952527.846533909440                       # Per-requestor bytes read from memory rate (Bytes/sec)
system.mem_ctrls.requestorReadAccesses::.cpu.inst         1759                       # Per-requestor read serviced memory accesses
system.mem_ctrls.requestorReadAccesses::.cpu.data         3069                       # Per-requestor read serviced memory accesses
system.mem_ctrls.requestorWriteAccesses::.writebacks           10                       # Per-requestor write serviced memory accesses
system.mem_ctrls.requestorReadTotalLat::.cpu.inst     48933250                       # Per-requestor read total memory access latency
system.mem_ctrls.requestorReadTotalLat::.cpu.data     77437750                       # Per-requestor read total memory access latency
system.mem_ctrls.requestorReadAvgLat::.cpu.inst     27818.79                       # Per-requestor read average memory access latency
system.mem_ctrls.requestorReadAvgLat::.cpu.data     25232.24                       # Per-requestor read average memory access latency
system.mem_ctrls.requestorWriteAvgLat::.writebacks         0.00                       # Per-requestor write average memory access latency
system.mem_ctrls.dram.bytes_read::.cpu.inst       112576                       # Number of bytes read from this memory
system.mem_ctrls.dram.bytes_read::.cpu.data       196416                       # Number of bytes read from this memory
system.mem_ctrls.dram.bytes_read::total        308992                       # Number of bytes read from this memory
system.mem_ctrls.dram.bytes_inst_read::.cpu.inst       112576                       # Number of instructions bytes read from this memory
system.mem_ctrls.dram.bytes_inst_read::total       112576                       # Number of instructions bytes read from this memory
system.mem_ctrls.dram.bytes_written::.writebacks          640                       # Number of bytes written to this memory
system.mem_ctrls.dram.bytes_written::total          640                       # Number of bytes written to this memory
system.mem_ctrls.dram.num_reads::.cpu.inst         1759                       # Number of read requests responded to by this memory
system.mem_ctrls.dram.num_reads::.cpu.data         3069                       # Number of read requests responded to by this memory
system.mem_ctrls.dram.num_reads::total           4828                       # Number of read requests responded to by this memory
system.mem_ctrls.dram.num_writes::.writebacks           10                       # Number of write requests responded to by this memory
system.mem_ctrls.dram.num_writes::total            10                       # Number of write requests responded to by this memory
system.mem_ctrls.dram.bw_read::.cpu.inst     54439862                       # Total read bandwidth from this memory (bytes/s)
system.mem_ctrls.dram.bw_read::.cpu.data     94983477                       # Total read bandwidth from this memory (bytes/s)
system.mem_ctrls.dram.bw_read::total        149423339                       # Total read bandwidth from this memory (bytes/s)
system.mem_ctrls.dram.bw_inst_read::.cpu.inst     54439862                       # Instruction read bandwidth from this memory (bytes/s)
system.mem_ctrls.dram.bw_inst_read::total     54439862                       # Instruction read bandwidth from this memory (bytes/s)
system.mem_ctrls.dram.bw_write::.writebacks       309493                       # Write bandwidth from this memory (bytes/s)
system.mem_ctrls.dram.bw_write::total          309493                       # Write bandwidth from this memory (bytes/s)
system.mem_ctrls.dram.bw_total::.writebacks       309493                       # Total bandwidth to/from this memory (bytes/s)
system.mem_ctrls.dram.bw_total::.cpu.inst     54439862                       # Total bandwidth to/from this memory (bytes/s)
system.mem_ctrls.dram.bw_total::.cpu.data     94983477                       # Total bandwidth to/from this memory (bytes/s)
system.mem_ctrls.dram.bw_total::total       149732832                       # Total bandwidth to/from this memory (bytes/s)
system.mem_ctrls.dram.readBursts                 4827                       # Number of DRAM read bursts
system.mem_ctrls.dram.writeBursts                   0                       # Number of DRAM write bursts
system.mem_ctrls.dram.perBankRdBursts::0          363                       # Per bank write bursts
system.mem_ctrls.dram.perBankRdBursts::1          376                       # Per bank write bursts
system.mem_ctrls.dram.perBankRdBursts::2          496                       # Per bank write bursts
system.mem_ctrls.dram.perBankRdBursts::3          388                       # Per bank write bursts
system.mem_ctrls.dram.perBankRdBursts::4          347                       # Per bank write bursts
system.mem_ctrls.dram.perBankRdBursts::5          391                       # Per bank write bursts
system.mem_ctrls.dram.perBankRdBursts::6          252                       # Per bank write bursts
system.mem_ctrls.dram.perBankRdBursts::7          196                       # Per bank write bursts
system.mem_ctrls.dram.perBankRdBursts::8          250                       # Per bank write bursts
system.mem_ctrls.dram.perBankRdBursts::9          270                       # Per bank write bursts
system.mem_ctrls.dram.perBankRdBursts::10          260                       # Per bank write bursts
system.mem_ctrls.dram.perBankRdBursts::11          178                       # Per bank write bursts
system.mem_ctrls.dram.perBankRdBursts::12          244                       # Per bank write bursts
system.mem_ctrls.dram.perBankRdBursts::13          257                       # Per bank write bursts
system.mem_ctrls.dram.perBankRdBursts::14          306                       # Per bank write bursts
system.mem_ctrls.dram.perBankRdBursts::15          253                       # Per bank write bursts
system.mem_ctrls.dram.perBankWrBursts::0            0                       # Per bank write bursts
system.mem_ctrls.dram.perBankWrBursts::1            0                       # Per bank write bursts
system.mem_ctrls.dram.perBankWrBursts::2            0                       # Per bank write bursts
system.mem_ctrls.dram.perBankWrBursts::3            0                       # Per bank write bursts
system.mem_ctrls.dram.perBankWrBursts::4            0                       # Per bank write bursts
system.mem_ctrls.dram.perBankWrBursts::5            0                       # Per bank write bursts
system.mem_ctrls.dram.perBankWrBursts::6            0                       # Per bank write bursts
system.mem_ctrls.dram.perBankWrBursts::7            0                       # Per bank write bursts
system.mem_ctrls.dram.perBankWrBursts::8            0                       # Per bank write bursts
system.mem_ctrls.dram.perBankWrBursts::9            0                       # Per bank write bursts
system.mem_ctrls.dram.perBankWrBursts::10            0                       # Per bank write bursts
system.mem_ctrls.dram.perBankWrBursts::11            0                       # Per bank write bursts
system.mem_ctrls.dram.perBankWrBursts::12            0                       # Per bank write bursts
system.mem_ctrls.dram.perBankWrBursts::13            0                       # Per bank write bursts
system.mem_ctrls.dram.perBankWrBursts::14            0                       # Per bank write bursts
system.mem_ctrls.dram.perBankWrBursts::15            0                       # Per bank write bursts
system.mem_ctrls.dram.totQLat                35864750                       # Total ticks spent queuing
system.mem_ctrls.dram.totBusLat              24135000                       # Total ticks spent in databus transfers
system.mem_ctrls.dram.totMemAccLat          126371000                       # Total ticks spent from burst creation until serviced by the DRAM
system.mem_ctrls.dram.avgQLat                 7430.03                       # Average queueing delay per DRAM burst
system.mem_ctrls.dram.avgBusLat               5000.00                       # Average bus latency per DRAM burst
system.mem_ctrls.dram.avgMemAccLat           26180.03                       # Average memory access latency per DRAM burst
system.mem_ctrls.dram.readRowHits                3937                       # Number of row buffer hits during reads
system.mem_ctrls.dram.writeRowHits                  0                       # Number of row buffer hits during writes
system.mem_ctrls.dram.readRowHitRate            81.56                       # Row buffer hit rate for reads
system.mem_ctrls.dram.writeRowHitRate             nan                       # Row buffer hit rate for writes
system.mem_ctrls.dram.bytesPerActivate::samples          877                       # Bytes accessed per row activation
system.mem_ctrls.dram.bytesPerActivate::mean   349.920182                       # Bytes accessed per row activation
system.mem_ctrls.dram.bytesPerActivate::gmean   222.983763                       # Bytes accessed per row activation
system.mem_ctrls.dram.bytesPerActivate::stdev   319.563712                       # Bytes accessed per row activation
system.mem_ctrls.dram.bytesPerActivate::0-127          238     27.14%     27.14% # Bytes accessed per row activation
system.mem_ctrls.dram.bytesPerActivate::128-255          202     23.03%     50.17% # Bytes accessed per row activation
system.mem_ctrls.dram.bytesPerActivate::256-383          118     13.45%     63.63% # Bytes accessed per row activation
system.mem_ctrls.dram.bytesPerActivate::384-511           82      9.35%     72.98% # Bytes accessed per row activation
[...]
system.cpu.dcache.SoftPFReq_hits::.cpu.data         7753                       # number of SoftPFReq hits
system.cpu.dcache.SoftPFReq_hits::total          7753                       # number of SoftPFReq hits
system.cpu.dcache.SoftPFReq_misses::.cpu.data          619                       # number of SoftPFReq misses
system.cpu.dcache.SoftPFReq_misses::total          619                       # number of SoftPFReq misses
system.cpu.dcache.SoftPFReq_accesses::.cpu.data         8372                       # number of SoftPFReq accesses(hits+misses)
system.cpu.dcache.SoftPFReq_accesses::total         8372                       # number of SoftPFReq accesses(hits+misses)
system.cpu.dcache.SoftPFReq_miss_rate::.cpu.data     0.073937                       # miss rate for SoftPFReq accesses
system.cpu.dcache.SoftPFReq_miss_rate::total     0.073937                       # miss rate for SoftPFReq accesses
system.cpu.dcache.SoftPFReq_mshr_misses::.cpu.data          438                       # number of SoftPFReq MSHR misses
system.cpu.dcache.SoftPFReq_mshr_misses::total          438                       # number of SoftPFReq MSHR misses
system.cpu.dcache.SoftPFReq_mshr_miss_latency::.cpu.data      5323500                       # number of SoftPFReq MSHR miss cycles
system.cpu.dcache.SoftPFReq_mshr_miss_latency::total      5323500                       # number of SoftPFReq MSHR miss cycles
system.cpu.dcache.SoftPFReq_mshr_miss_rate::.cpu.data     0.052317                       # mshr miss rate for SoftPFReq accesses
system.cpu.dcache.SoftPFReq_mshr_miss_rate::total     0.052317                       # mshr miss rate for SoftPFReq accesses
system.cpu.dcache.SoftPFReq_avg_mshr_miss_latency::.cpu.data 12154.109589                       # average SoftPFReq mshr miss latency
system.cpu.dcache.SoftPFReq_avg_mshr_miss_latency::total 12154.109589                       # average SoftPFReq mshr miss latency
system.cpu.dcache.power_state.pwrStateResidencyTicks::UNDEFINED   2067896500                       # Cumulative time (in ticks) in various power states
system.cpu.dcache.tags.tagsinuse           494.429695                       # Cycle average of tags in use
system.cpu.dcache.tags.total_refs             1308012                       # Total number of references to valid blocks.
system.cpu.dcache.tags.sampled_refs             26218                       # Sample count of references to valid blocks.
system.cpu.dcache.tags.avg_refs             49.889847                       # Average number of references to valid blocks.
system.cpu.dcache.tags.warmup_cycle            190500                       # Cycle when the warmup percentage was hit.
system.cpu.dcache.tags.occ_blocks::.cpu.data   494.429695                       # Average occupied blocks per requestor
system.cpu.dcache.tags.occ_percent::.cpu.data     0.965683                       # Average percentage of cache occupancy
system.cpu.dcache.tags.occ_percent::total     0.965683                       # Average percentage of cache occupancy
system.cpu.dcache.tags.occ_task_id_blocks::1024          512                       # Occupied blocks per task id
system.cpu.dcache.tags.age_task_id_blocks_1024::0          100                       # Occupied blocks per task id
system.cpu.dcache.tags.age_task_id_blocks_1024::1          397                       # Occupied blocks per task id
system.cpu.dcache.tags.age_task_id_blocks_1024::2           15                       # Occupied blocks per task id
system.cpu.dcache.tags.occ_task_id_percent::1024            1                       # Percentage of cache occupancy per task id
system.cpu.dcache.tags.tag_accesses           2749766                       # Number of tag accesses
system.cpu.dcache.tags.data_accesses          2749766                       # Number of data accesses
system.cpu.dcache.tags.power_state.pwrStateResidencyTicks::UNDEFINED   2067896500                       # Cumulative time (in ticks) in various power states
system.cpu.power_state.pwrStateResidencyTicks::ON   2067896500                       # Cumulative time (in ticks) in various power states
system.cpu.branchPred.lookups                 1373392                       # Number of BP lookups
system.cpu.branchPred.condPredicted           1200894                       # Number of conditional branches predicted
system.cpu.branchPred.condIncorrect             80571                       # Number of conditional branches incorrect
system.cpu.branchPred.BTBLookups               743951                       # Number of BTB lookups
system.cpu.branchPred.BTBHits                  738005                       # Number of BTB hits
system.cpu.branchPred.BTBHitPct             99.200754                       # BTB Hit Percentage
system.cpu.branchPred.RASUsed                   40752                       # Number of times the RAS was used to get a target.
system.cpu.branchPred.RASIncorrect                 14                       # Number of incorrect RAS predictions.
system.cpu.branchPred.indirectLookups           15027                       # Number of indirect predictor lookups.
system.cpu.branchPred.indirectHits              10975                       # Number of indirect target hits.
system.cpu.branchPred.indirectMisses             4052                       # Number of indirect misses.
system.cpu.branchPred.indirectMispredicted          768                       # Number of mispredicted indirect branches.
system.cpu.commit.commitSquashedInsts         3206991                       # The number of squashed insts skipped by commit
system.cpu.commit.commitNonSpecStalls             215                       # The number of times commit has been forced to stall to communicate backwards
system.cpu.commit.branchMispredicts             77074                       # The number of times a branch was mispredicted
system.cpu.commit.numCommittedDist::samples      3547409                       # Number of insts commited each cycle
system.cpu.commit.numCommittedDist::mean     1.984055                       # Number of insts commited each cycle
system.cpu.commit.numCommittedDist::stdev     2.640228                       # Number of insts commited each cycle
system.cpu.commit.numCommittedDist::underflows            0      0.00%      0.00% # Number of insts commited each cycle
system.cpu.commit.numCommittedDist::0         1537031     43.33%     43.33% # Number of insts commited each cycle
system.cpu.commit.numCommittedDist::1          655046     18.47%     61.79% # Number of insts commited each cycle
system.cpu.commit.numCommittedDist::2          310293      8.75%     70.54% # Number of insts commited each cycle
system.cpu.commit.numCommittedDist::3          327447      9.23%     79.77% # Number of insts commited each cycle
system.cpu.commit.numCommittedDist::4          151658      4.28%     84.05% # Number of insts commited each cycle
system.cpu.commit.numCommittedDist::5           68707      1.94%     85.98% # Number of insts commited each cycle
system.cpu.commit.numCommittedDist::6           49056      1.38%     87.37% # Number of insts commited each cycle
system.cpu.commit.numCommittedDist::7           49588      1.40%     88.76% # Number of insts commited each cycle
system.cpu.commit.numCommittedDist::8          398583     11.24%    100.00% # Number of insts commited each cycle
system.cpu.commit.numCommittedDist::overflows            0      0.00%    100.00% # Number of insts commited each cycle
system.cpu.commit.numCommittedDist::min_value            0                       # Number of insts commited each cycle
system.cpu.commit.numCommittedDist::max_value            8                       # Number of insts commited each cycle
system.cpu.commit.numCommittedDist::total      3547409                       # Number of insts commited each cycle
system.cpu.commit.instsCommitted              3826356                       # Number of instructions committed
system.cpu.commit.opsCommitted                7038256                       # Number of ops (including micro ops) committed
system.cpu.commit.memRefs                     1155916                       # Number of memory references committed
system.cpu.commit.loads                        792802                       # Number of loads committed
system.cpu.commit.amos                              0                       # Number of atomic instructions committed
system.cpu.commit.membars                           0                       # Number of memory barriers committed
system.cpu.commit.branches                     810703                       # Number of branches committed
system.cpu.commit.vector                            0                       # Number of committed Vector instructions.
system.cpu.commit.floating                     123616                       # Number of committed floating point instructions.
system.cpu.commit.integer                     6818561                       # Number of committed integer instructions.
system.cpu.commit.functionCalls                 29676                       # Number of function calls committed.
system.cpu.commit.committedInstType_0::No_OpClass       138402      1.97%      1.97% # Class of committed instruction
system.cpu.commit.committedInstType_0::IntAlu      5098842     72.44%     74.41% # Class of committed instruction
system.cpu.commit.committedInstType_0::IntMult        20119      0.29%     74.70% # Class of committed instruction
system.cpu.commit.committedInstType_0::IntDiv       568663      8.08%     82.78% # Class of committed instruction
system.cpu.commit.committedInstType_0::FloatAdd          980      0.01%     82.79% # Class of committed instruction
system.cpu.commit.committedInstType_0::FloatCmp            0      0.00%     82.79% # Class of committed instruction
system.cpu.commit.committedInstType_0::FloatCvt            0      0.00%     82.79% # Class of committed instruction
system.cpu.commit.committedInstType_0::FloatMult            0      0.00%     82.79% # Class of committed instruction
system.cpu.commit.committedInstType_0::FloatMultAcc            0      0.00%     82.79% # Class of committed instruction
system.cpu.commit.committedInstType_0::FloatDiv            0      0.00%     82.79% # Class of committed instruction
system.cpu.commit.committedInstType_0::FloatMisc            0      0.00%     82.79% # Class of committed instruction
system.cpu.commit.committedInstType_0::FloatSqrt            0      0.00%     82.79% # Class of committed instruction
system.cpu.commit.committedInstType_0::SimdAdd         2442      0.03%     82.83% # Class of committed instruction
system.cpu.commit.committedInstType_0::SimdAddAcc            0      0.00%     82.83% # Class of committed instruction
system.cpu.commit.committedInstType_0::SimdAlu        30662      0.44%     83.26% # Class of committed instruction
system.cpu.commit.committedInstType_0::SimdCmp            0      0.00%     83.26% # Class of committed instruction
system.cpu.commit.committedInstType_0::SimdCvt        11988      0.17%     83.43% # Class of committed instruction
system.cpu.commit.committedInstType_0::SimdMisc         8480      0.12%     83.55% # Class of committed instruction
system.cpu.commit.committedInstType_0::SimdMult            0      0.00%     83.55% # Class of committed instruction
system.cpu.commit.committedInstType_0::SimdMultAcc            0      0.00%     83.55% # Class of committed instruction
system.cpu.commit.committedInstType_0::SimdShift         1222      0.02%     83.57% # Class of committed instruction
system.cpu.commit.committedInstType_0::SimdShiftAcc            0      0.00%     83.57% # Class of committed instruction
system.cpu.commit.committedInstType_0::SimdDiv            0      0.00%     83.57% # Class of committed instruction
system.cpu.commit.committedInstType_0::SimdSqrt            0      0.00%     83.57% # Class of committed instruction
system.cpu.commit.committedInstType_0::SimdFloatAdd           16      0.00%     83.57% # Class of committed instruction
system.cpu.commit.committedInstType_0::SimdFloatAlu            0      0.00%     83.57% # Class of committed instruction
system.cpu.commit.committedInstType_0::SimdFloatCmp            0      0.00%     83.57% # Class of committed instruction
system.cpu.commit.committedInstType_0::SimdFloatCvt          393      0.01%     83.57% # Class of committed instruction
system.cpu.commit.committedInstType_0::SimdFloatDiv          131      0.00%     83.58% # Class of committed instruction
system.cpu.commit.committedInstType_0::SimdFloatMisc            0      0.00%     83.58% # Class of committed instruction
system.cpu.commit.committedInstType_0::SimdFloatMult            0      0.00%     83.58% # Class of committed instruction
system.cpu.commit.committedInstType_0::SimdFloatMultAcc            0      0.00%     83.58% # Class of committed instruction
system.cpu.commit.committedInstType_0::SimdFloatSqrt            0      0.00%     83.58% # Class of committed instruction
system.cpu.commit.committedInstType_0::SimdReduceAdd            0      0.00%     83.58% # Class of committed instruction
system.cpu.commit.committedInstType_0::SimdReduceAlu            0      0.00%     83.58% # Class of committed instruction
system.cpu.commit.committedInstType_0::SimdReduceCmp            0      0.00%     83.58% # Class of committed instruction
system.cpu.commit.committedInstType_0::SimdFloatReduceAdd            0      0.00%     83.58% # Class of committed instruction
system.cpu.commit.committedInstType_0::SimdFloatReduceCmp            0      0.00%     83.58% # Class of committed instruction
system.cpu.commit.committedInstType_0::SimdAes            0      0.00%     83.58% # Class of committed instruction
system.cpu.commit.committedInstType_0::SimdAesMix            0      0.00%     83.58% # Class of committed instruction
system.cpu.commit.committedInstType_0::SimdSha1Hash            0      0.00%     83.58% # Class of committed instruction
system.cpu.commit.committedInstType_0::SimdSha1Hash2            0      0.00%     83.58% # Class of committed instruction
system.cpu.commit.committedInstType_0::SimdSha256Hash            0      0.00%     83.58% # Class of committed instruction
system.cpu.commit.committedInstType_0::SimdSha256Hash2            0      0.00%     83.58% # Class of committed instruction
system.cpu.commit.committedInstType_0::SimdShaSigma2            0      0.00%     83.58% # Class of committed instruction
system.cpu.commit.committedInstType_0::SimdShaSigma3            0      0.00%     83.58% # Class of committed instruction
system.cpu.commit.committedInstType_0::SimdPredAlu            0      0.00%     83.58% # Class of committed instruction
system.cpu.commit.committedInstType_0::MemRead       765044     10.87%     94.45% # Class of committed instruction
system.cpu.commit.committedInstType_0::MemWrite       343517      4.88%     99.33% # Class of committed instruction
system.cpu.commit.committedInstType_0::FloatMemRead        27758      0.39%     99.72% # Class of committed instruction
system.cpu.commit.committedInstType_0::FloatMemWrite        19597      0.28%    100.00% # Class of committed instruction
system.cpu.commit.committedInstType_0::IprAccess            0      0.00%    100.00% # Class of committed instruction
system.cpu.commit.committedInstType_0::InstPrefetch            0      0.00%    100.00% # Class of committed instruction
system.cpu.commit.committedInstType_0::total      7038256                       # Class of committed instruction
system.cpu.commit.commitEligibleSamples        398583                       # number cycles where commit BW limit reached
system.cpu.thread0.numInsts                   3826356                       # Number of Instructions committed
system.cpu.thread0.numOps                     7038256                       # Number of Ops committed
system.cpu.thread0.numMemRefs                       0                       # Number of Memory References
system.cpu.fetch.icacheStallCycles            1179666                       # Number of cycles fetch is stalled on an Icache miss
system.cpu.fetch.insts                        6634594                       # Number of instructions fetch has processed
system.cpu.fetch.branches                     1373392                       # Number of branches that fetch encountered
system.cpu.fetch.predictedBranches             789732                       # Number of branches that fetch has predicted taken
system.cpu.fetch.cycles                       2729614                       # Number of cycles fetch has run and was not squashing or blocked
system.cpu.fetch.squashCycles                  167868                       # Number of cycles fetch has spent squashing
system.cpu.fetch.miscStallCycles                  340                       # Number of cycles fetch has spent waiting on interrupts,or bad addresses, or out of MSHRs
system.cpu.fetch.pendingTrapStallCycles          2291                       # Number of stall cycles due to pending traps
system.cpu.fetch.pendingQuiesceStallCycles            2                       # Number of stall cycles due to pending quiesce instructions
system.cpu.fetch.icacheWaitRetryStallCycles           52                       # Number of stall cycles due to full MSHR
system.cpu.fetch.cacheLines                    916429                       # Number of cache lines fetched
system.cpu.fetch.icacheSquashes                 30314                       # Number of outstanding Icache misses that were squashed
system.cpu.fetch.nisnDist::samples            3995899                       # Number of instructions fetched each cycle (Total)
system.cpu.fetch.nisnDist::mean              2.956547                       # Number of instructions fetched each cycle (Total)
system.cpu.fetch.nisnDist::stdev             3.448341                       # Number of instructions fetched each cycle (Total)
system.cpu.fetch.nisnDist::underflows               0      0.00%      0.00% # Number of instructions fetched each cycle (Total)
system.cpu.fetch.nisnDist::0                  2053289     51.38%     51.38% # Number of instructions fetched each cycle (Total)
system.cpu.fetch.nisnDist::1                    84330      2.11%     53.50% # Number of instructions fetched each cycle (Total)
system.cpu.fetch.nisnDist::2                   151121      3.78%     57.28% # Number of instructions fetched each cycle (Total)
system.cpu.fetch.nisnDist::3                   165156      4.13%     61.41% # Number of instructions fetched each cycle (Total)
system.cpu.fetch.nisnDist::4                   121450      3.04%     64.45% # Number of instructions fetched each cycle (Total)
system.cpu.fetch.nisnDist::5                   151401      3.79%     68.24% # Number of instructions fetched each cycle (Total)
system.cpu.fetch.nisnDist::6                   137527      3.44%     71.68% # Number of instructions fetched each cycle (Total)
system.cpu.fetch.nisnDist::7                   188942      4.73%     76.41% # Number of instructions fetched each cycle (Total)
system.cpu.fetch.nisnDist::8                   942683     23.59%    100.00% # Number of instructions fetched each cycle (Total)
system.cpu.fetch.nisnDist::overflows                0      0.00%    100.00% # Number of instructions fetched each cycle (Total)
system.cpu.fetch.nisnDist::min_value                0                       # Number of instructions fetched each cycle (Total)
system.cpu.fetch.nisnDist::max_value                8                       # Number of instructions fetched each cycle (Total)
system.cpu.fetch.nisnDist::total              3995899                       # Number of instructions fetched each cycle (Total)
system.cpu.fetch.branchRate                  0.332075                       # Number of branch fetches per cycle
system.cpu.fetch.rate                        1.604189                       # Number of inst fetches per cycle

---------- End Simulation Statistics   ----------
