
---------- Begin Simulation Statistics ----------
final_tick                                 3625391000                       # Number of ticks from beginning of simulation (restored from checkpoints and never reset)
host_inst_rate                                 146134                       # Simulator instruction rate (inst/s)
host_mem_usage                                 727148                       # Number of bytes of host memory used
host_op_rate                                   286390                       # Simulator op (including micro ops) rate (op/s)
host_seconds                                    80.43                       # Real time elapsed on the host
host_tick_rate                               45074430                       # Simulator tick rate (ticks/s)
sim_freq                                 1000000000000                       # Frequency of simulated ticks
sim_insts                                    11753748                       # Number of instructions simulated
sim_ops                                      23034729                       # Number of ops (including micro ops) simulated
sim_seconds                                  0.003625                       # Number of seconds simulated
sim_ticks                                  3625391000                       # Number of ticks simulated
system.cpu.cc_regfile_reads                  12255865                       # number of cc regfile reads
system.cpu.cc_regfile_writes                  9751112                       # number of cc regfile writes
system.cpu.committedInsts                    11753748                       # Number of Instructions Simulated
system.cpu.committedOps                      23034729                       # Number of Ops (including micro ops) Simulated
system.cpu.cpi                               0.616891                       # CPI: Cycles Per Instruction
system.cpu.cpi_total                         0.616891                       # CPI: Total CPI of All Threads
system.cpu.fp_regfile_reads                   6463827                       # number of floating regfile reads
system.cpu.fp_regfile_writes                  4332320                       # number of floating regfile writes
system.cpu.idleCycles                          129077                       # Total number of cycles that the CPU has spent unscheduled due to idling
system.cpu.iew.branchMispredicts               122024                       # Number of branch mispredicts detected at execute
system.cpu.iew.exec_branches                  2441786                       # Number of branches executed
system.cpu.iew.exec_nop                             0                       # number of nop insts executed
system.cpu.iew.exec_rate                     3.507215                       # Inst execution rate
system.cpu.iew.exec_refs                      4913557                       # number of memory reference insts executed
system.cpu.iew.exec_stores                     534595                       # Number of stores executed
system.cpu.iew.exec_swp                             0                       # number of swp insts executed
system.cpu.iew.iewBlockCycles                  473223                       # Number of cycles IEW is blocking
system.cpu.iew.iewDispLoadInsts               4682997                       # Number of dispatched load instructions
system.cpu.iew.iewDispNonSpecInsts                198                       # Number of dispatched non-speculative instructions
system.cpu.iew.iewDispSquashedInsts              9807                       # Number of squashed instructions skipped by dispatch
system.cpu.iew.iewDispStoreInsts               716898                       # Number of dispatched store instructions
system.cpu.iew.iewDispatchedInsts            27243748                       # Number of instructions dispatched to IQ
system.cpu.iew.iewExecLoadInsts               4378962                       # Number of load instructions executed
system.cpu.iew.iewExecSquashedInsts            274741                       # Number of squashed instructions skipped in execute
system.cpu.iew.iewExecutedInsts              25430053                       # Number of executed instructions
system.cpu.iew.iewIQFullEvents                    403                       # Number of times the IQ has become full, causing a stall
system.cpu.iew.iewIdleCycles                        0                       # Number of cycles IEW is idle
system.cpu.iew.iewLSQFullEvents                 68058                       # Number of times the LSQ has become full, causing a stall
system.cpu.iew.iewSquashCycles                 116758                       # Number of cycles IEW is squashing
system.cpu.iew.iewUnblockCycles                 68903                       # Number of cycles IEW is unblocking
system.cpu.iew.memOrderViolationEvents            313                       # Number of memory order violations
system.cpu.iew.predictedNotTakenIncorrect        41506                       # Number of branches that were predicted not taken incorrectly
system.cpu.iew.predictedTakenIncorrect          80518                       # Number of branches that were predicted taken incorrectly
system.cpu.iew.wb_consumers                  33969554                       # num instructions consuming a value
system.cpu.iew.wb_count                      25268265                       # cumulative count of insts written-back
system.cpu.iew.wb_fanout                     0.626534                       # average fanout of values written-back
system.cpu.iew.wb_producers                  21283088                       # num instructions producing a value
system.cpu.iew.wb_rate                       3.484902                       # insts written-back per cycle
system.cpu.iew.wb_sent                       25320542                       # cumulative count of insts sent to commit
system.cpu.int_regfile_reads                 31877965                       # number of integer regfile reads
system.cpu.int_regfile_writes                19246662                       # number of integer regfile writes
system.cpu.ipc                               1.621032                       # IPC: Instructions Per Cycle
system.cpu.ipc_total                         1.621032                       # IPC: Total IPC of All Threads
system.cpu.iq.FU_type_0::No_OpClass            165857      0.65%      0.65% # Type of FU issued
system.cpu.iq.FU_type_0::IntAlu              17465921     67.95%     68.59% # Type of FU issued
system.cpu.iq.FU_type_0::IntMult                18967      0.07%     68.67% # Type of FU issued
system.cpu.iq.FU_type_0::IntDiv                630577      2.45%     71.12% # Type of FU issued
system.cpu.iq.FU_type_0::FloatAdd              198418      0.77%     71.89% # Type of FU issued
system.cpu.iq.FU_type_0::FloatCmp                   0      0.00%     71.89% # Type of FU issued
system.cpu.iq.FU_type_0::FloatCvt                   0      0.00%     71.89% # Type of FU issued
system.cpu.iq.FU_type_0::FloatMult                  0      0.00%     71.89% # Type of FU issued
system.cpu.iq.FU_type_0::FloatMultAcc               0      0.00%     71.89% # Type of FU issued
system.cpu.iq.FU_type_0::FloatDiv                   0      0.00%     71.89% # Type of FU issued
system.cpu.iq.FU_type_0::FloatMisc                  0      0.00%     71.89% # Type of FU issued
system.cpu.iq.FU_type_0::FloatSqrt                  0      0.00%     71.89% # Type of FU issued
system.cpu.iq.FU_type_0::SimdAdd                 2446      0.01%     71.90% # Type of FU issued
system.cpu.iq.FU_type_0::SimdAddAcc                 0      0.00%     71.90% # Type of FU issued
system.cpu.iq.FU_type_0::SimdAlu               324149      1.26%     73.16% # Type of FU issued
system.cpu.iq.FU_type_0::SimdCmp                    0      0.00%     73.16% # Type of FU issued
system.cpu.iq.FU_type_0::SimdCvt                11148      0.04%     73.21% # Type of FU issued
system.cpu.iq.FU_type_0::SimdMisc               55479      0.22%     73.42% # Type of FU issued
system.cpu.iq.FU_type_0::SimdMult                   0      0.00%     73.42% # Type of FU issued
system.cpu.iq.FU_type_0::SimdMultAcc                0      0.00%     73.42% # Type of FU issued
system.cpu.iq.FU_type_0::SimdShift               1233      0.00%     73.43% # Type of FU issued
system.cpu.iq.FU_type_0::SimdShiftAcc               0      0.00%     73.43% # Type of FU issued
system.cpu.iq.FU_type_0::SimdDiv                    0      0.00%     73.43% # Type of FU issued
system.cpu.iq.FU_type_0::SimdSqrt                   0      0.00%     73.43% # Type of FU issued
system.cpu.iq.FU_type_0::SimdFloatAdd         1667728      6.49%     79.91% # Type of FU issued
system.cpu.iq.FU_type_0::SimdFloatAlu               0      0.00%     79.91% # Type of FU issued
system.cpu.iq.FU_type_0::SimdFloatCmp               0      0.00%     79.91% # Type of FU issued
system.cpu.iq.FU_type_0::SimdFloatCvt           98704      0.38%     80.30% # Type of FU issued
system.cpu.iq.FU_type_0::SimdFloatDiv           49224      0.19%     80.49% # Type of FU issued
system.cpu.iq.FU_type_0::SimdFloatMisc              0      0.00%     80.49% # Type of FU issued
system.cpu.iq.FU_type_0::SimdFloatMult          49152      0.19%     80.68% # Type of FU issued
system.cpu.iq.FU_type_0::SimdFloatMultAcc            0      0.00%     80.68% # Type of FU issued
system.cpu.iq.FU_type_0::SimdFloatSqrt              0      0.00%     80.68% # Type of FU issued
system.cpu.iq.FU_type_0::SimdReduceAdd              0      0.00%     80.68% # Type of FU issued
system.cpu.iq.FU_type_0::SimdReduceAlu              0      0.00%     80.68% # Type of FU issued
system.cpu.iq.FU_type_0::SimdReduceCmp              0      0.00%     80.68% # Type of FU issued
system.cpu.iq.FU_type_0::SimdFloatReduceAdd            0      0.00%     80.68% # Type of FU issued
system.cpu.iq.FU_type_0::SimdFloatReduceCmp            0      0.00%     80.68% # Type of FU issued
system.cpu.iq.FU_type_0::SimdAes                    0      0.00%     80.68% # Type of FU issued
system.cpu.iq.FU_type_0::SimdAesMix                 0      0.00%     80.68% # Type of FU issued
system.cpu.iq.FU_type_0::SimdSha1Hash               0      0.00%     80.68% # Type of FU issued
system.cpu.iq.FU_type_0::SimdSha1Hash2              0      0.00%     80.68% # Type of FU issued
system.cpu.iq.FU_type_0::SimdSha256Hash             0      0.00%     80.68% # Type of FU issued
system.cpu.iq.FU_type_0::SimdSha256Hash2            0      0.00%     80.68% # Type of FU issued
system.cpu.iq.FU_type_0::SimdShaSigma2              0      0.00%     80.68% # Type of FU issued
system.cpu.iq.FU_type_0::SimdShaSigma3              0      0.00%     80.68% # Type of FU issued
system.cpu.iq.FU_type_0::SimdPredAlu                0      0.00%     80.68% # Type of FU issued
system.cpu.iq.FU_type_0::MemRead              2550088      9.92%     90.60% # Type of FU issued
system.cpu.iq.FU_type_0::MemWrite              370458      1.44%     92.04% # Type of FU issued
system.cpu.iq.FU_type_0::FloatMemRead         1866276      7.26%     99.30% # Type of FU issued
system.cpu.iq.FU_type_0::FloatMemWrite         178969      0.70%    100.00% # Type of FU issued
system.cpu.iq.FU_type_0::IprAccess                  0      0.00%    100.00% # Type of FU issued
system.cpu.iq.FU_type_0::InstPrefetch               0      0.00%    100.00% # Type of FU issued
system.cpu.iq.FU_type_0::total               25704794                       # Type of FU issued
system.cpu.iq.fp_alu_accesses                 4606163                       # Number of floating point alu accesses
system.cpu.iq.fp_inst_queue_reads             9129847                       # Number of floating instruction queue reads
system.cpu.iq.fp_inst_queue_wakeup_accesses      4510608                       # Number of floating instruction queue wakeup accesses
system.cpu.iq.fp_inst_queue_writes            5034394                       # Number of floating instruction queue writes
system.cpu.iq.fu_busy_cnt                      175846                       # FU busy when requested
system.cpu.iq.fu_busy_rate                   0.006841                       # FU busy rate (busy events/executed inst)
system.cpu.iq.fu_full::No_OpClass                   0      0.00%      0.00% # attempts to use FU when none available
system.cpu.iq.fu_full::IntAlu                   79989     45.49%     45.49% # attempts to use FU when none available
system.cpu.iq.fu_full::IntMult                      0      0.00%     45.49% # attempts to use FU when none available
system.cpu.iq.fu_full::IntDiv                       0      0.00%     45.49% # attempts to use FU when none available
system.cpu.iq.fu_full::FloatAdd                     0      0.00%     45.49% # attempts to use FU when none available
system.cpu.iq.fu_full::FloatCmp                     0      0.00%     45.49% # attempts to use FU when none available
system.cpu.iq.fu_full::FloatCvt                     0      0.00%     45.49% # attempts to use FU when none available
system.cpu.iq.fu_full::FloatMult                    0      0.00%     45.49% # attempts to use FU when none available
system.cpu.iq.fu_full::FloatMultAcc                 0      0.00%     45.49% # attempts to use FU when none available
system.cpu.iq.fu_full::FloatDiv                     0      0.00%     45.49% # attempts to use FU when none available
system.cpu.iq.fu_full::FloatMisc                    0      0.00%     45.49% # attempts to use FU when none available
system.cpu.iq.fu_full::FloatSqrt                    0      0.00%     45.49% # attempts to use FU when none available
system.cpu.iq.fu_full::SimdAdd                      0      0.00%     45.49% # attempts to use FU when none available
system.cpu.iq.fu_full::SimdAddAcc                   0      0.00%     45.49% # attempts to use FU when none available
system.cpu.iq.fu_full::SimdAlu                    282      0.16%     45.65% # attempts to use FU when none available
system.cpu.iq.fu_full::SimdCmp                      0      0.00%     45.65% # attempts to use FU when none available
system.cpu.iq.fu_full::SimdCvt                     69      0.04%     45.69% # attempts to use FU when none available
system.cpu.iq.fu_full::SimdMisc                    91      0.05%     45.74% # attempts to use FU when none available
system.cpu.iq.fu_full::SimdMult                     0      0.00%     45.74% # attempts to use FU when none available
system.cpu.iq.fu_full::SimdMultAcc                  0      0.00%     45.74% # attempts to use FU when none available
system.cpu.iq.fu_full::SimdShift                    0      0.00%     45.74% # attempts to use FU when none available
system.cpu.iq.fu_full::SimdShiftAcc                 0      0.00%     45.74% # attempts to use FU when none available
system.cpu.iq.fu_full::SimdDiv                      0      0.00%     45.74% # attempts to use FU when none available
system.cpu.iq.fu_full::SimdSqrt                     0      0.00%     45.74% # attempts to use FU when none available
system.cpu.iq.fu_full::SimdFloatAdd                 0      0.00%     45.74% # attempts to use FU when none available
system.cpu.iq.fu_full::SimdFloatAlu                 0      0.00%     45.74% # attempts to use FU when none available
system.cpu.iq.fu_full::SimdFloatCmp                 0      0.00%     45.74% # attempts to use FU when none available
system.cpu.iq.fu_full::SimdFloatCvt                 0      0.00%     45.74% # attempts to use FU when none available
system.cpu.iq.fu_full::SimdFloatDiv                 0      0.00%     45.74% # attempts to use FU when none available
system.cpu.iq.fu_full::SimdFloatMisc                0      0.00%     45.74% # attempts to use FU when none available
system.cpu.iq.fu_full::SimdFloatMult                0      0.00%     45.74% # attempts to use FU when none available
system.cpu.iq.fu_full::SimdFloatMultAcc             0      0.00%     45.74% # attempts to use FU when none available
system.cpu.iq.fu_full::SimdFloatSqrt                0      0.00%     45.74% # attempts to use FU when none available
system.cpu.iq.fu_full::SimdReduceAdd                0      0.00%     45.74% # attempts to use FU when none available
system.cpu.iq.fu_full::SimdReduceAlu                0      0.00%     45.74% # attempts to use FU when none available
system.cpu.iq.fu_full::SimdReduceCmp                0      0.00%     45.74% # attempts to use FU when none available
system.cpu.iq.fu_full::SimdFloatReduceAdd            0      0.00%     45.74% # attempts to use FU when none available
system.cpu.iq.fu_full::SimdFloatReduceCmp            0      0.00%     45.74% # attempts to use FU when none available
system.cpu.iq.fu_full::SimdAes                      0      0.00%     45.74% # attempts to use FU when none available
system.cpu.iq.fu_full::SimdAesMix                   0      0.00%     45.74% # attempts to use FU when none available
system.cpu.iq.fu_full::SimdSha1Hash                 0      0.00%     45.74% # attempts to use FU when none available
system.cpu.iq.fu_full::SimdSha1Hash2                0      0.00%     45.74% # attempts to use FU when none available
system.cpu.iq.fu_full::SimdSha256Hash               0      0.00%     45.74% # attempts to use FU when none available
system.cpu.iq.fu_full::SimdSha256Hash2              0      0.00%     45.74% # attempts to use FU when none available
system.cpu.iq.fu_full::SimdShaSigma2                0      0.00%     45.74% # attempts to use FU when none available
system.cpu.iq.fu_full::SimdShaSigma3                0      0.00%     45.74% # attempts to use FU when none available
system.cpu.iq.fu_full::SimdPredAlu                  0      0.00%     45.74% # attempts to use FU when none available
system.cpu.iq.fu_full::MemRead                  10779      6.13%     51.87% # attempts to use FU when none available
system.cpu.iq.fu_full::MemWrite                  1326      0.75%     52.62% # attempts to use FU when none available
system.cpu.iq.fu_full::FloatMemRead             79714     45.33%     97.96% # attempts to use FU when none available
system.cpu.iq.fu_full::FloatMemWrite             3596      2.04%    100.00% # attempts to use FU when none available
system.cpu.iq.fu_full::IprAccess                    0      0.00%    100.00% # attempts to use FU when none available
system.cpu.iq.fu_full::InstPrefetch                 0      0.00%    100.00% # attempts to use FU when none available
system.cpu.iq.int_alu_accesses               21108620                       # Number of integer alu accesses
system.cpu.iq.int_inst_queue_reads           49587351                       # Number of integer instruction queue reads
system.cpu.iq.int_inst_queue_wakeup_accesses     20757657                       # Number of integer instruction queue wakeup accesses
system.cpu.iq.int_inst_queue_writes          26418645                       # Number of integer instruction queue writes
system.cpu.iq.iqInstsAdded                   27241500                       # Number of instructions added to the IQ (excludes non-spec)
system.cpu.iq.iqInstsIssued                  25704794                       # Number of instructions issued
system.cpu.iq.iqNonSpecInstsAdded                2248                       # Number of non-speculative instructions added to the IQ
system.cpu.iq.iqSquashedInstsExamined         4209013                       # Number of squashed instructions iterated over during squash; mainly for profiling
system.cpu.iq.iqSquashedInstsIssued             10058                       # Number of squashed instructions issued
system.cpu.iq.iqSquashedNonSpecRemoved           2049                       # Number of squashed non-spec instructions that were removed
system.cpu.iq.iqSquashedOperandsExamined      6264256                       # Number of squashed operands that are examined and possibly removed from graph
system.cpu.iq.issued_per_cycle::samples       7121706                       # Number of insts issued each cycle
system.cpu.iq.issued_per_cycle::mean         3.609359                       # Number of insts issued each cycle
system.cpu.iq.issued_per_cycle::stdev        2.335036                       # Number of insts issued each cycle
system.cpu.iq.issued_per_cycle::underflows            0      0.00%      0.00% # Number of insts issued each cycle
system.cpu.iq.issued_per_cycle::0             1325099     18.61%     18.61% # Number of insts issued each cycle
system.cpu.iq.issued_per_cycle::1              338757      4.76%     23.36% # Number of insts issued each cycle
system.cpu.iq.issued_per_cycle::2              464532      6.52%     29.89% # Number of insts issued each cycle
system.cpu.iq.issued_per_cycle::3              940522     13.21%     43.09% # Number of insts issued each cycle
system.cpu.iq.issued_per_cycle::4             1187003     16.67%     59.76% # Number of insts issued each cycle
system.cpu.iq.issued_per_cycle::5             1241883     17.44%     77.20% # Number of insts issued each cycle
system.cpu.iq.issued_per_cycle::6              988352     13.88%     91.08% # Number of insts issued each cycle
system.cpu.iq.issued_per_cycle::7              356596      5.01%     96.08% # Number of insts issued each cycle
system.cpu.iq.issued_per_cycle::8              278962      3.92%    100.00% # Number of insts issued each cycle
system.cpu.iq.issued_per_cycle::overflows            0      0.00%    100.00% # Number of insts issued each cycle
system.cpu.iq.issued_per_cycle::min_value            0                       # Number of insts issued each cycle
system.cpu.iq.issued_per_cycle::max_value            8                       # Number of insts issued each cycle
system.cpu.iq.issued_per_cycle::total         7121706                       # Number of insts issued each cycle
system.cpu.iq.rate                           3.545106                       # Inst issue rate
system.cpu.iq.vec_alu_accesses                      0                       # Number of vector alu accesses
system.cpu.iq.vec_inst_queue_reads                  0                       # Number of vector instruction queue reads
system.cpu.iq.vec_inst_queue_wakeup_accesses            0                       # Number of vector instruction queue wakeup accesses
system.cpu.iq.vec_inst_queue_writes                 0                       # Number of vector instruction queue writes
system.cpu.memDep0.conflictingLoads            282724                       # Number of conflicting loads.
system.cpu.memDep0.conflictingStores           236214                       # Number of conflicting stores.
system.cpu.memDep0.insertedLoads              4682997                       # Number of loads inserted to the mem dependence unit.
system.cpu.memDep0.insertedStores              716898                       # Number of stores inserted to the mem dependence unit.
system.cpu.misc_regfile_reads                 9801190                       # number of misc regfile reads
system.cpu.numCycles                          7250783                       # number of cpu cycles simulated
system.cpu.numWorkItemsCompleted                    0                       # number of work items this cpu completed
system.cpu.numWorkItemsStarted                      0                       # number of work items this cpu started
system.cpu.timesIdled                            1136                       # Number of times that the entire CPU went into an idle state and unscheduled itself
system.cpu.workload.numSyscalls                   163                       # Number of system calls
system.membus.snoop_filter.hit_multi_requests            0                       # Number of requests hitting in the snoop filter with multiple (>1) holders of the requested data.
system.membus.snoop_filter.hit_multi_snoops            0                       # Number of snoops hitting in the snoop filter with multiple (>1) holders of the requested data.
system.membus.snoop_filter.hit_single_requests           77                       # Number of requests hitting in the snoop filter with a single holder of the requested data.
system.membus.snoop_filter.hit_single_snoops            0                       # Number of snoops hitting in the snoop filter with a single holder of the requested data.
system.membus.snoop_filter.tot_requests          4787                       # Total number of requests made to the snoop filter.
system.membus.snoop_filter.tot_snoops               0                       # Total number of snoops made to the snoop filter.
system.tol2bus.snoop_filter.hit_multi_requests          106                       # Number of requests hitting in the snoop filter with multiple (>1) holders of the requested data.
system.tol2bus.snoop_filter.hit_multi_snoops            0                       # Number of snoops hitting in the snoop filter with multiple (>1) holders of the requested data.
system.tol2bus.snoop_filter.hit_single_requests        72083                       # Number of requests hitting in the snoop filter with a single holder of the requested data.
system.tol2bus.snoop_filter.hit_single_snoops          200                       # Number of snoops hitting in the snoop filter with a single holder of the requested data.
system.tol2bus.snoop_filter.tot_requests       146205                       # Total number of requests made to the snoop filter.
system.tol2bus.snoop_filter.tot_snoops            200                       # Total number of snoops made to the snoop filter.
system.membus.trans_dist::ReadResp               2054                       # Transaction distribution
system.membus.trans_dist::WritebackDirty           18                       # Transaction distribution
system.membus.trans_dist::CleanEvict               59                       # Transaction distribution
system.membus.trans_dist::ReadExReq              2656                       # Transaction distribution
system.membus.trans_dist::ReadExResp             2656                       # Transaction distribution
system.membus.trans_dist::ReadSharedReq          2054                       # Transaction distribution
system.membus.pkt_count_system.l2.mem_side_port::system.mem_ctrls.port         9497                       # Packet count per connected requestor and responder (bytes)
system.membus.pkt_count_system.l2.mem_side_port::total         9497                       # Packet count per connected requestor and responder (bytes)
system.membus.pkt_count::total                   9497                       # Packet count per connected requestor and responder (bytes)
system.membus.pkt_size_system.l2.mem_side_port::system.mem_ctrls.port       302592                       # Cumulative packet size per connected requestor and responder (bytes)
system.membus.pkt_size_system.l2.mem_side_port::total       302592                       # Cumulative packet size per connected requestor and responder (bytes)
system.membus.pkt_size::total                  302592                       # Cumulative packet size per connected requestor and responder (bytes)
system.membus.snoops                                0                       # Total snoops (count)
system.membus.snoopTraffic                          0                       # Total snoop traffic (bytes)
system.membus.snoop_fanout::samples              4710                       # Request fanout histogram
system.membus.snoop_fanout::mean                    0                       # Request fanout histogram
system.membus.snoop_fanout::stdev                   0                       # Request fanout histogram
system.membus.snoop_fanout::underflows              0      0.00%      0.00% # Request fanout histogram
system.membus.snoop_fanout::0                    4710    100.00%    100.00% # Request fanout histogram
system.membus.snoop_fanout::1                       0      0.00%    100.00% # Request fanout histogram
system.membus.snoop_fanout::overflows               0      0.00%    100.00% # Request fanout histogram
system.membus.snoop_fanout::min_value               0                       # Request fanout histogram
system.membus.snoop_fanout::max_value               0                       # Request fanout histogram
system.membus.snoop_fanout::total                4710                       # Request fanout histogram
system.membus.reqLayer2.occupancy             5872500                       # Layer occupancy (ticks)
system.membus.reqLayer2.utilization               0.2                       # Layer utilization (%)
system.membus.respLayer1.occupancy           24949000                       # Layer occupancy (ticks)
system.membus.respLayer1.utilization              0.7                       # Layer utilization (%)
system.membus.power_state.pwrStateResidencyTicks::UNDEFINED   3625391000                       # Cumulative time (in ticks) in various power states
system.tol2bus.trans_dist::ReadResp             67037                       # Transaction distribution
system.tol2bus.trans_dist::WritebackDirty        68009                       # Transaction distribution
system.tol2bus.trans_dist::WritebackClean          879                       # Transaction distribution
system.tol2bus.trans_dist::CleanEvict            3466                       # Transaction distribution
system.tol2bus.trans_dist::ReadExReq             7085                       # Transaction distribution
system.tol2bus.trans_dist::ReadExResp            7085                       # Transaction distribution
system.tol2bus.trans_dist::ReadCleanReq          1896                       # Transaction distribution
system.tol2bus.trans_dist::ReadSharedReq        65142                       # Transaction distribution
system.tol2bus.pkt_count_system.cpu.icache.mem_side_port::system.l2.cpu_side_port         4668                       # Packet count per connected requestor and responder (bytes)
system.tol2bus.pkt_count_system.cpu.dcache.mem_side_port::system.l2.cpu_side_port       215657                       # Packet count per connected requestor and responder (bytes)
system.tol2bus.pkt_count::total                220325                       # Packet count per connected requestor and responder (bytes)
system.tol2bus.pkt_size_system.cpu.icache.mem_side_port::system.l2.cpu_side_port       177408                       # Cumulative packet size per connected requestor and responder (bytes)
system.tol2bus.pkt_size_system.cpu.dcache.mem_side_port::system.l2.cpu_side_port      8973952                       # Cumulative packet size per connected requestor and responder (bytes)
system.tol2bus.pkt_size::total                9151360                       # Cumulative packet size per connected requestor and responder (bytes)
system.tol2bus.snoops                             274                       # Total snoops (count)
system.tol2bus.snoopTraffic                      1280                       # Total snoop traffic (bytes)
system.tol2bus.snoop_fanout::samples            74395                       # Request fanout histogram
system.tol2bus.snoop_fanout::mean            0.004127                       # Request fanout histogram
system.tol2bus.snoop_fanout::stdev           0.064107                       # Request fanout histogram
system.tol2bus.snoop_fanout::underflows             0      0.00%      0.00% # Request fanout histogram
system.tol2bus.snoop_fanout::0                  74088     99.59%     99.59% # Request fanout histogram
system.tol2bus.snoop_fanout::1                    307      0.41%    100.00% # Request fanout histogram
system.tol2bus.snoop_fanout::2                      0      0.00%    100.00% # Request fanout histogram
system.tol2bus.snoop_fanout::3                      0      0.00%    100.00% # Request fanout histogram
system.tol2bus.snoop_fanout::4                      0      0.00%    100.00% # Request fanout histogram
system.tol2bus.snoop_fanout::overflows              0      0.00%    100.00% # Request fanout histogram
system.tol2bus.snoop_fanout::min_value              0                       # Request fanout histogram
system.tol2bus.snoop_fanout::max_value              1                       # Request fanout histogram
system.tol2bus.snoop_fanout::total              74395                       # Request fanout histogram
system.tol2bus.reqLayer0.occupancy          141972500                       # Layer occupancy (ticks)
system.tol2bus.reqLayer0.utilization              3.9                       # Layer utilization (%)
system.tol2bus.respLayer1.occupancy         108340999                       # Layer occupancy (ticks)
system.tol2bus.respLayer1.utilization             3.0                       # Layer utilization (%)
system.tol2bus.respLayer0.occupancy           2842999                       # Layer occupancy (ticks)
system.tol2bus.respLayer0.utilization             0.1                       # Layer utilization (%)
system.tol2bus.power_state.pwrStateResidencyTicks::UNDEFINED   3625391000                       # Cumulative time (in ticks) in various power states
system.voltage_domain.voltage                       1                       # Voltage in Volts
system.clk_domain.clock                          1000                       # Clock period in ticks
system.l2.demand_hits::.cpu.inst                   97                       # number of demand (read+write) hits
system.l2.demand_hits::.cpu.data                69312                       # number of demand (read+write) hits
system.l2.demand_hits::total                    69409                       # number of demand (read+write) hits
system.l2.overall_hits::.cpu.inst                  97                       # number of overall hits
system.l2.overall_hits::.cpu.data               69312                       # number of overall hits
system.l2.overall_hits::total                   69409                       # number of overall hits
system.l2.demand_misses::.cpu.inst               1797                       # number of demand (read+write) misses
system.l2.demand_misses::.cpu.data               2915                       # number of demand (read+write) misses
system.l2.demand_misses::total                   4712                       # number of demand (read+write) misses
system.l2.overall_misses::.cpu.inst              1797                       # number of overall misses
system.l2.overall_misses::.cpu.data              2915                       # number of overall misses
system.l2.overall_misses::total                  4712                       # number of overall misses
system.l2.demand_miss_latency::.cpu.inst    141587500                       # number of demand (read+write) miss cycles
system.l2.demand_miss_latency::.cpu.data    223550000                       # number of demand (read+write) miss cycles
system.l2.demand_miss_latency::total        365137500                       # number of demand (read+write) miss cycles
system.l2.overall_miss_latency::.cpu.inst    141587500                       # number of overall miss cycles
system.l2.overall_miss_latency::.cpu.data    223550000                       # number of overall miss cycles
system.l2.overall_miss_latency::total       365137500                       # number of overall miss cycles
system.l2.demand_accesses::.cpu.inst             1894                       # number of demand (read+write) accesses
system.l2.demand_accesses::.cpu.data            72227                       # number of demand (read+write) accesses
system.l2.demand_accesses::total                74121                       # number of demand (read+write) accesses
system.l2.overall_accesses::.cpu.inst            1894                       # number of overall (read+write) accesses
system.l2.overall_accesses::.cpu.data           72227                       # number of overall (read+write) accesses
system.l2.overall_accesses::total               74121                       # number of overall (read+write) accesses
system.l2.demand_miss_rate::.cpu.inst        0.948786                       # miss rate for demand accesses
system.l2.demand_miss_rate::.cpu.data        0.040359                       # miss rate for demand accesses
system.l2.demand_miss_rate::total            0.063572                       # miss rate for demand accesses
system.l2.overall_miss_rate::.cpu.inst       0.948786                       # miss rate for overall accesses
system.l2.overall_miss_rate::.cpu.data       0.040359                       # miss rate for overall accesses
system.l2.overall_miss_rate::total           0.063572                       # miss rate for overall accesses
system.l2.demand_avg_miss_latency::.cpu.inst 78791.040623                       # average overall miss latency
system.l2.demand_avg_miss_latency::.cpu.data 76689.536878                       # average overall miss latency
system.l2.demand_avg_miss_latency::total 77490.980475                       # average overall miss latency
system.l2.overall_avg_miss_latency::.cpu.inst 78791.040623                       # average overall miss latency
system.l2.overall_avg_miss_latency::.cpu.data 76689.536878                       # average overall miss latency
system.l2.overall_avg_miss_latency::total 77490.980475                       # average overall miss latency
system.l2.blocked_cycles::no_mshrs                  0                       # number of cycles access was blocked
system.l2.blocked_cycles::no_targets                0                       # number of cycles access was blocked
system.l2.blocked::no_mshrs                         0                       # number of cycles access was blocked
system.l2.blocked::no_targets                       0                       # number of cycles access was blocked
system.l2.avg_blocked_cycles::no_mshrs            nan                       # average number of cycles each access was blocked
system.l2.avg_blocked_cycles::no_targets          nan                       # average number of cycles each access was blocked
system.l2.writebacks::.writebacks                  18                       # number of writebacks
system.l2.writebacks::total                        18                       # number of writebacks
system.l2.demand_mshr_hits::.cpu.data               1                       # number of demand (read+write) MSHR hits
system.l2.demand_mshr_hits::total                   1                       # number of demand (read+write) MSHR hits
system.l2.overall_mshr_hits::.cpu.data              1                       # number of overall MSHR hits
system.l2.overall_mshr_hits::total                  1                       # number of overall MSHR hits
system.l2.demand_mshr_misses::.cpu.inst          1797                       # number of demand (read+write) MSHR misses
system.l2.demand_mshr_misses::.cpu.data          2914                       # number of demand (read+write) MSHR misses
system.l2.demand_mshr_misses::total              4711                       # number of demand (read+write) MSHR misses
system.l2.overall_mshr_misses::.cpu.inst         1797                       # number of overall MSHR misses
system.l2.overall_mshr_misses::.cpu.data         2914                       # number of overall MSHR misses
system.l2.overall_mshr_misses::total             4711                       # number of overall MSHR misses
system.l2.demand_mshr_miss_latency::.cpu.inst    123627500                       # number of demand (read+write) MSHR miss cycles
system.l2.demand_mshr_miss_latency::.cpu.data    194350500                       # number of demand (read+write) MSHR miss cycles
system.l2.demand_mshr_miss_latency::total    317978000                       # number of demand (read+write) MSHR miss cycles
system.l2.overall_mshr_miss_latency::.cpu.inst    123627500                       # number of overall MSHR miss cycles
system.l2.overall_mshr_miss_latency::.cpu.data    194350500                       # number of overall MSHR miss cycles
system.l2.overall_mshr_miss_latency::total    317978000                       # number of overall MSHR miss cycles
system.l2.demand_mshr_miss_rate::.cpu.inst     0.948786                       # mshr miss rate for demand accesses
system.l2.demand_mshr_miss_rate::.cpu.data     0.040345                       # mshr miss rate for demand accesses
system.l2.demand_mshr_miss_rate::total       0.063558                       # mshr miss rate for demand accesses
system.l2.overall_mshr_miss_rate::.cpu.inst     0.948786                       # mshr miss rate for overall accesses
system.l2.overall_mshr_miss_rate::.cpu.data     0.040345                       # mshr miss rate for overall accesses
system.l2.overall_mshr_miss_rate::total      0.063558                       # mshr miss rate for overall accesses
system.l2.demand_avg_mshr_miss_latency::.cpu.inst 68796.605454                       # average overall mshr miss latency
system.l2.demand_avg_mshr_miss_latency::.cpu.data 66695.435827                       # average overall mshr miss latency
system.l2.demand_avg_mshr_miss_latency::total 67496.922097                       # average overall mshr miss latency
system.l2.overall_avg_mshr_miss_latency::.cpu.inst 68796.605454                       # average overall mshr miss latency
system.l2.overall_avg_mshr_miss_latency::.cpu.data 66695.435827                       # average overall mshr miss latency
system.l2.overall_avg_mshr_miss_latency::total 67496.922097                       # average overall mshr miss latency
system.l2.replacements                            272                       # number of replacements
system.l2.WritebackDirty_hits::.writebacks        67991                       # number of WritebackDirty hits
system.l2.WritebackDirty_hits::total            67991                       # number of WritebackDirty hits
system.l2.WritebackDirty_accesses::.writebacks        67991                       # number of WritebackDirty accesses(hits+misses)
system.l2.WritebackDirty_accesses::total        67991                       # number of WritebackDirty accesses(hits+misses)
system.l2.WritebackClean_hits::.writebacks          878                       # number of WritebackClean hits
system.l2.WritebackClean_hits::total              878                       # number of WritebackClean hits
system.l2.WritebackClean_accesses::.writebacks          878                       # number of WritebackClean accesses(hits+misses)
system.l2.WritebackClean_accesses::total          878                       # number of WritebackClean accesses(hits+misses)
system.l2.CleanEvict_mshr_misses::.writebacks            5                       # number of CleanEvict MSHR misses
system.l2.CleanEvict_mshr_misses::total             5                       # number of CleanEvict MSHR misses
system.l2.CleanEvict_mshr_miss_rate::.writebacks          inf                       # mshr miss rate for CleanEvict accesses
system.l2.CleanEvict_mshr_miss_rate::total          inf                       # mshr miss rate for CleanEvict accesses
system.l2.ReadExReq_hits::.cpu.data              4429                       # number of ReadExReq hits
system.l2.ReadExReq_hits::total                  4429                       # number of ReadExReq hits
system.l2.ReadExReq_misses::.cpu.data            2656                       # number of ReadExReq misses
system.l2.ReadExReq_misses::total                2656                       # number of ReadExReq misses
system.l2.ReadExReq_miss_latency::.cpu.data    200385500                       # number of ReadExReq miss cycles
system.l2.ReadExReq_miss_latency::total     200385500                       # number of ReadExReq miss cycles
system.l2.ReadExReq_accesses::.cpu.data          7085                       # number of ReadExReq accesses(hits+misses)
system.l2.ReadExReq_accesses::total              7085                       # number of ReadExReq accesses(hits+misses)
system.l2.ReadExReq_miss_rate::.cpu.data     0.374876                       # miss rate for ReadExReq accesses
system.l2.ReadExReq_miss_rate::total         0.374876                       # miss rate for ReadExReq accesses
system.l2.ReadExReq_avg_miss_latency::.cpu.data 75446.347892                       # average ReadExReq miss latency
system.l2.ReadExReq_avg_miss_latency::total 75446.347892                       # average ReadExReq miss latency
system.l2.ReadExReq_mshr_misses::.cpu.data         2656                       # number of ReadExReq MSHR misses
system.l2.ReadExReq_mshr_misses::total           2656                       # number of ReadExReq MSHR misses
system.l2.ReadExReq_mshr_miss_latency::.cpu.data    173825500                       # number of ReadExReq MSHR miss cycles
system.l2.ReadExReq_mshr_miss_latency::total    173825500                       # number of ReadExReq MSHR miss cycles
system.l2.ReadExReq_mshr_miss_rate::.cpu.data     0.374876                       # mshr miss rate for ReadExReq accesses
system.l2.ReadExReq_mshr_miss_rate::total     0.374876                       # mshr miss rate for ReadExReq accesses
system.l2.ReadExReq_avg_mshr_miss_latency::.cpu.data 65446.347892                       # average ReadExReq mshr miss latency
system.l2.ReadExReq_avg_mshr_miss_latency::total 65446.347892                       # average ReadExReq mshr miss latency
system.l2.ReadCleanReq_hits::.cpu.inst             97                       # number of ReadCleanReq hits
system.l2.ReadCleanReq_hits::total                 97                       # number of ReadCleanReq hits
system.l2.ReadCleanReq_misses::.cpu.inst         1797                       # number of ReadCleanReq misses
system.l2.ReadCleanReq_misses::total             1797                       # number of ReadCleanReq misses
system.l2.ReadCleanReq_miss_latency::.cpu.inst    141587500                       # number of ReadCleanReq miss cycles
system.l2.ReadCleanReq_miss_latency::total    141587500                       # number of ReadCleanReq miss cycles
system.l2.ReadCleanReq_accesses::.cpu.inst         1894                       # number of ReadCleanReq accesses(hits+misses)
system.l2.ReadCleanReq_accesses::total           1894                       # number of ReadCleanReq accesses(hits+misses)
system.l2.ReadCleanReq_miss_rate::.cpu.inst     0.948786                       # miss rate for ReadCleanReq accesses
system.l2.ReadCleanReq_miss_rate::total      0.948786                       # miss rate for ReadCleanReq accesses
system.l2.ReadCleanReq_avg_miss_latency::.cpu.inst 78791.040623                       # average ReadCleanReq miss latency
system.l2.ReadCleanReq_avg_miss_latency::total 78791.040623                       # average ReadCleanReq miss latency
system.l2.ReadCleanReq_mshr_misses::.cpu.inst         1797                       # number of ReadCleanReq MSHR misses
system.l2.ReadCleanReq_mshr_misses::total         1797                       # number of ReadCleanReq MSHR misses
system.l2.ReadCleanReq_mshr_miss_latency::.cpu.inst    123627500                       # number of ReadCleanReq MSHR miss cycles
system.l2.ReadCleanReq_mshr_miss_latency::total    123627500                       # number of ReadCleanReq MSHR miss cycles
system.l2.ReadCleanReq_mshr_miss_rate::.cpu.inst     0.948786                       # mshr miss rate for ReadCleanReq accesses
system.l2.ReadCleanReq_mshr_miss_rate::total     0.948786                       # mshr miss rate for ReadCleanReq accesses
system.l2.ReadCleanReq_avg_mshr_miss_latency::.cpu.inst 68796.605454                       # average ReadCleanReq mshr miss latency
system.l2.ReadCleanReq_avg_mshr_miss_latency::total 68796.605454                       # average ReadCleanReq mshr miss latency
system.l2.ReadSharedReq_hits::.cpu.data         64883                       # number of ReadSharedReq hits
system.l2.ReadSharedReq_hits::total             64883                       # number of ReadSharedReq hits
system.l2.ReadSharedReq_misses::.cpu.data          259                       # number of ReadSharedReq misses
system.l2.ReadSharedReq_misses::total             259                       # number of ReadSharedReq misses
system.l2.ReadSharedReq_miss_latency::.cpu.data     23164500                       # number of ReadSharedReq miss cycles
system.l2.ReadSharedReq_miss_latency::total     23164500                       # number of ReadSharedReq miss cycles
system.l2.ReadSharedReq_accesses::.cpu.data        65142                       # number of ReadSharedReq accesses(hits+misses)
system.l2.ReadSharedReq_accesses::total         65142                       # number of ReadSharedReq accesses(hits+misses)
system.l2.ReadSharedReq_miss_rate::.cpu.data     0.003976                       # miss rate for ReadSharedReq accesses
system.l2.ReadSharedReq_miss_rate::total     0.003976                       # miss rate for ReadSharedReq accesses
system.l2.ReadSharedReq_avg_miss_latency::.cpu.data 89438.223938                       # average ReadSharedReq miss latency
system.l2.ReadSharedReq_avg_miss_latency::total 89438.223938                       # average ReadSharedReq miss latency
system.l2.ReadSharedReq_mshr_hits::.cpu.data            1                       # number of ReadSharedReq MSHR hits
system.l2.ReadSharedReq_mshr_hits::total            1                       # number of ReadSharedReq MSHR hits
system.l2.ReadSharedReq_mshr_misses::.cpu.data          258                       # number of ReadSharedReq MSHR misses
system.l2.ReadSharedReq_mshr_misses::total          258                       # number of ReadSharedReq MSHR misses
system.l2.ReadSharedReq_mshr_miss_latency::.cpu.data     20525000                       # number of ReadSharedReq MSHR miss cycles
system.l2.ReadSharedReq_mshr_miss_latency::total     20525000                       # number of ReadSharedReq MSHR miss cycles
system.l2.ReadSharedReq_mshr_miss_rate::.cpu.data     0.003961                       # mshr miss rate for ReadSharedReq accesses
system.l2.ReadSharedReq_mshr_miss_rate::total     0.003961                       # mshr miss rate for ReadSharedReq accesses
system.l2.ReadSharedReq_avg_mshr_miss_latency::.cpu.data 79554.263566                       # average ReadSharedReq mshr miss latency
system.l2.ReadSharedReq_avg_mshr_miss_latency::total 79554.263566                       # average ReadSharedReq mshr miss latency
system.l2.power_state.pwrStateResidencyTicks::UNDEFINED   3625391000                       # Cumulative time (in ticks) in various power states
system.l2.tags.tagsinuse                  3974.525979                       # Cycle average of tags in use
system.l2.tags.total_refs                      146092                       # Total number of references to valid blocks.
system.l2.tags.sampled_refs                      4784                       # Sample count of references to valid blocks.
system.l2.tags.avg_refs                     30.537625                       # Average number of references to valid blocks.
system.l2.tags.warmup_cycle                     77000                       # Cycle when the warmup percentage was hit.
system.l2.tags.occ_blocks::.writebacks      44.034063                       # Average occupied blocks per requestor
system.l2.tags.occ_blocks::.cpu.inst      1455.678807                       # Average occupied blocks per requestor
system.l2.tags.occ_blocks::.cpu.data      2474.813109                       # Average occupied blocks per requestor
system.l2.tags.occ_percent::.writebacks      0.005375                       # Average percentage of cache occupancy
system.l2.tags.occ_percent::.cpu.inst        0.177695                       # Average percentage of cache occupancy
system.l2.tags.occ_percent::.cpu.data        0.302101                       # Average percentage of cache occupancy
system.l2.tags.occ_percent::total            0.485172                       # Average percentage of cache occupancy
system.l2.tags.occ_task_id_blocks::1024          4512                       # Occupied blocks per task id
system.l2.tags.age_task_id_blocks_1024::0           91                       # Occupied blocks per task id
system.l2.tags.age_task_id_blocks_1024::3         4421                       # Occupied blocks per task id
system.l2.tags.occ_task_id_percent::1024     0.550781                       # Percentage of cache occupancy per task id
system.l2.tags.tag_accesses                    296982                       # Number of tag accesses
system.l2.tags.data_accesses                   296982                       # Number of data accesses
system.l2.tags.power_state.pwrStateResidencyTicks::UNDEFINED   3625391000                       # Cumulative time (in ticks) in various power states
system.cpu_voltage_domain.voltage                   1                       # Voltage in Volts
system.mem_ctrls.avgPriority_.writebacks::samples        18.00                       # Average QoS priority value for accepted requests
system.mem_ctrls.avgPriority_.cpu.inst::samples      1796.00                       # Average QoS priority value for accepted requests
system.mem_ctrls.avgPriority_.cpu.data::samples      2912.00                       # Average QoS priority value for accepted requests
system.mem_ctrls.priorityMinLatency      0.000000018750                       # per QoS priority minimum request to response latency (s)
system.mem_ctrls.priorityMaxLatency      0.000000580000                       # per QoS priority maximum request to response latency (s)
system.mem_ctrls.numReadWriteTurnArounds            0                       # Number of turnarounds from READ to WRITE
system.mem_ctrls.numWriteReadTurnArounds            0                       # Number of turnarounds from WRITE to READ
system.mem_ctrls.numStayReadState               10310                       # Number of times bus staying in READ state
system.mem_ctrls.numStayWriteState                  0                       # Number of times bus staying in WRITE state
system.mem_ctrls.readReqs                        4710                       # Number of read requests accepted
system.mem_ctrls.writeReqs                         18                       # Number of write requests accepted
system.mem_ctrls.readBursts                      4710                       # Number of controller read bursts, including those serviced by the write queue
system.mem_ctrls.writeBursts                       18                       # Number of controller write bursts, including those merged in the write queue
system.mem_ctrls.servicedByWrQ                      2                       # Number of controller read bursts serviced by the write queue
system.mem_ctrls.mergedWrBursts                     0                       # Number of controller write bursts merged with an existing one
system.mem_ctrls.neitherReadNorWriteReqs            0                       # Number of requests that are neither read nor write
system.mem_ctrls.avgRdQLen                       1.02                       # Average read queue length when enqueuing
system.mem_ctrls.avgWrQLen                       8.98                       # Average write queue length when enqueuing
system.mem_ctrls.numRdRetry                         0                       # Number of times read queue was full causing retry
system.mem_ctrls.numWrRetry                         0                       # Number of times write queue was full causing retry
system.mem_ctrls.readPktSize::0                     0                       # Read request sizes (log2)
system.mem_ctrls.readPktSize::1                     0                       # Read request sizes (log2)
system.mem_ctrls.readPktSize::2                     0                       # Read request sizes (log2)
system.mem_ctrls.readPktSize::3                     0                       # Read request sizes (log2)
system.mem_ctrls.readPktSize::4                     0                       # Read request sizes (log2)
system.mem_ctrls.readPktSize::5                     0                       # Read request sizes (log2)
system.mem_ctrls.readPktSize::6                  4710                       # Read request sizes (log2)
system.mem_ctrls.writePktSize::0                    0                       # Write request sizes (log2)
system.mem_ctrls.writePktSize::1                    0                       # Write request sizes (log2)
system.mem_ctrls.writePktSize::2                    0                       # Write request sizes (log2)
system.mem_ctrls.writePktSize::3                    0                       # Write request sizes (log2)
system.mem_ctrls.writePktSize::4                    0                       # Write request sizes (log2)
system.mem_ctrls.writePktSize::5                    0                       # Write request sizes (log2)
system.mem_ctrls.writePktSize::6                   18                       # Write request sizes (log2)
system.mem_ctrls.rdQLenPdf::0                    3930                       # What read queue length does an incoming req see
system.mem_ctrls.rdQLenPdf::1                     607                       # What read queue length does an incoming req see
system.mem_ctrls.rdQLenPdf::2                     141                       # What read queue length does an incoming req see
system.mem_ctrls.rdQLenPdf::3                      24                       # What read queue length does an incoming req see
system.mem_ctrls.rdQLenPdf::4                       6                       # What read queue length does an incoming req see
system.mem_ctrls.rdQLenPdf::5                       0                       # What read queue length does an incoming req see
system.mem_ctrls.rdQLenPdf::6                       0                       # What read queue length does an incoming req see
system.mem_ctrls.rdQLenPdf::7                       0                       # What read queue length does an incoming req see
system.mem_ctrls.rdQLenPdf::8                       0                       # What read queue length does an incoming req see
system.mem_ctrls.rdQLenPdf::9                       0                       # What read queue length does an incoming req see
system.mem_ctrls.rdQLenPdf::10                      0                       # What read queue length does an incoming req see
system.mem_ctrls.rdQLenPdf::11                      0                       # What read queue length does an incoming req see
system.mem_ctrls.rdQLenPdf::12                      0                       # What read queue length does an incoming req see
system.mem_ctrls.rdQLenPdf::13                      0                       # What read queue length does an incoming req see
system.mem_ctrls.rdQLenPdf::14                      0                       # What read queue length does an incoming req see
system.mem_ctrls.rdQLenPdf::15                      0                       # What read queue length does an incoming req see
system.mem_ctrls.rdQLenPdf::16                      0                       # What read queue length does an incoming req see
system.mem_ctrls.rdQLenPdf::17                      0                       # What read queue length does an incoming req see
system.mem_ctrls.rdQLenPdf::18                      0                       # What read queue length does an incoming req see
system.mem_ctrls.rdQLenPdf::19                      0                       # What read queue length does an incoming req see
system.mem_ctrls.rdQLenPdf::20                      0                       # What read queue length does an incoming req see
system.mem_ctrls.rdQLenPdf::21                      0                       # What read queue length does an incoming req see
system.mem_ctrls.rdQLenPdf::22                      0                       # What read queue length does an incoming req see
system.mem_ctrls.rdQLenPdf::23                      0                       # What read queue length does an incoming req see
system.mem_ctrls.rdQLenPdf::24                      0                       # What read queue length does an incoming req see
system.mem_ctrls.rdQLenPdf::25                      0                       # What read queue length does an incoming req see
system.mem_ctrls.rdQLenPdf::26                      0                       # What read queue length does an incoming req see
system.mem_ctrls.rdQLenPdf::27                      0                       # What read queue length does an incoming req see
system.mem_ctrls.rdQLenPdf::28                      0                       # What read queue length does an incoming req see
system.mem_ctrls.rdQLenPdf::29                      0                       # What read queue length does an incoming req see
system.mem_ctrls.rdQLenPdf::30                      0                       # What read queue length does an incoming req see
system.mem_ctrls.rdQLenPdf::31                      0                       # What read queue length does an incoming req see
system.mem_ctrls.wrQLenPdf::0                       1                       # What write queue length does an incoming req see
system.mem_ctrls.wrQLenPdf::1                       1                       # What write queue length does an incoming req see
system.mem_ctrls.wrQLenPdf::2                       1                       # What write queue length does an incoming req see
system.mem_ctrls.wrQLenPdf::3                       1                       # What write queue length does an incoming req see
system.mem_ctrls.wrQLenPdf::4                       1                       # What write queue length does an incoming req see
system.mem_ctrls.wrQLenPdf::5                       1                       # What write queue length does an incoming req see
system.mem_ctrls.wrQLenPdf::6                       1                       # What write queue length does an incoming req see
system.mem_ctrls.wrQLenPdf::7                       1                       # What write queue length does an incoming req see
system.mem_ctrls.wrQLenPdf::8                       1                       # What write queue length does an incoming req see
system.mem_ctrls.wrQLenPdf::9                       1                       # What write queue length does an incoming req see
system.mem_ctrls.wrQLenPdf::10                      1                       # What write queue length does an incoming req see
system.mem_ctrls.wrQLenPdf::11                      1                       # What write queue length does an incoming req see
system.mem_ctrls.wrQLenPdf::12                      1                       # What write queue length does an incoming req see
system.mem_ctrls.wrQLenPdf::13                      1                       # What write queue length does an incoming req see
system.mem_ctrls.wrQLenPdf::14                      1                       # What write queue length does an incoming req see
system.mem_ctrls.wrQLenPdf::15                      1                       # What write queue length does an incoming req see
system.mem_ctrls.wrQLenPdf::16                      1                       # What write queue length does an incoming req see
system.mem_ctrls.wrQLenPdf::17                      1                       # What write queue length does an incoming req see
system.mem_ctrls.wrQLenPdf::18                      0                       # What write queue length does an incoming req see
system.mem_ctrls.wrQLenPdf::19                      0                       # What write queue length does an incoming req see
system.mem_ctrls.wrQLenPdf::20                      0                       # What write queue length does an incoming req see
system.mem_ctrls.wrQLenPdf::21                      0                       # What write queue length does an incoming req see
system.mem_ctrls.wrQLenPdf::22                      0                       # What write queue length does an incoming req see
system.mem_ctrls.wrQLenPdf::23                      0                       # What write queue length does an incoming req see
system.mem_ctrls.wrQLenPdf::24                      0                       # What write queue length does an incoming req see
system.mem_ctrls.wrQLenPdf::25                      0                       # What write queue length does an incoming req see
system.mem_ctrls.wrQLenPdf::26                      0                       # What write queue length does an incoming req see
system.mem_ctrls.wrQLenPdf::27                      0                       # What write queue length does an incoming req see
system.mem_ctrls.wrQLenPdf::28                      0                       # What write queue length does an incoming req see
system.mem_ctrls.wrQLenPdf::29                      0                       # What write queue length does an incoming req see
system.mem_ctrls.wrQLenPdf::30                      0                       # What write queue length does an incoming req see
system.mem_ctrls.wrQLenPdf::31                      0                       # What write queue length does an incoming req see
system.mem_ctrls.wrQLenPdf::32                      0                       # What write queue length does an incoming req see
system.mem_ctrls.wrQLenPdf::33                      0                       # What write queue length does an incoming req see
system.mem_ctrls.wrQLenPdf::34                      0                       # What write queue length does an incoming req see
system.mem_ctrls.wrQLenPdf::35                      0                       # What write queue length does an incoming req see
system.mem_ctrls.wrQLenPdf::36                      0                       # What write queue length does an incoming req see
system.mem_ctrls.wrQLenPdf::37                      0                       # What write queue length does an incoming req see
system.mem_ctrls.wrQLenPdf::38                      0                       # What write queue length does an incoming req see
system.mem_ctrls.wrQLenPdf::39                      0                       # What write queue length does an incoming req see
system.mem_ctrls.wrQLenPdf::40                      0                       # What write queue length does an incoming req see
system.mem_ctrls.wrQLenPdf::41                      0                       # What write queue length does an incoming req see
system.mem_ctrls.wrQLenPdf::42                      0                       # What write queue length does an incoming req see
system.mem_ctrls.wrQLenPdf::43                      0                       # What write queue length does an incoming req see
system.mem_ctrls.wrQLenPdf::44                      0                       # What write queue length does an incoming req see
system.mem_ctrls.wrQLenPdf::45                      0                       # What write queue length does an incoming req see
system.mem_ctrls.wrQLenPdf::46                      0                       # What write queue length does an incoming req see
system.mem_ctrls.wrQLenPdf::47                      0                       # What write queue length does an incoming req see
system.mem_ctrls.wrQLenPdf::48                      0                       # What write queue length does an incoming req see
system.mem_ctrls.wrQLenPdf::49                      0                       # What write queue length does an incoming req see
system.mem_ctrls.wrQLenPdf::50                      0                       # What write queue length does an incoming req see
system.mem_ctrls.wrQLenPdf::51                      0                       # What write queue length does an incoming req see
system.mem_ctrls.wrQLenPdf::52                      0                       # What write queue length does an incoming req see
system.mem_ctrls.wrQLenPdf::53                      0                       # What write queue length does an incoming req see
system.mem_ctrls.wrQLenPdf::54                      0                       # What write queue length does an incoming req see
system.mem_ctrls.wrQLenPdf::55                      0                       # What write queue length does an incoming req see
system.mem_ctrls.wrQLenPdf::56                      0                       # What write queue length does an incoming req see
system.mem_ctrls.wrQLenPdf::57                      0                       # What write queue length does an incoming req see
system.mem_ctrls.wrQLenPdf::58                      0                       # What write queue length does an incoming req see
system.mem_ctrls.wrQLenPdf::59                      0                       # What write queue length does an incoming req see
system.mem_ctrls.wrQLenPdf::60                      0                       # What write queue length does an incoming req see
system.mem_ctrls.wrQLenPdf::61                      0                       # What write queue length does an incoming req see
system.mem_ctrls.wrQLenPdf::62                      0                       # What write queue length does an incoming req see
system.mem_ctrls.wrQLenPdf::63                      0                       # What write queue length does an incoming req see
system.mem_ctrls.bytesReadWrQ                     128                       # Total number of bytes read from write queue
system.mem_ctrls.bytesReadSys                  301440                       # Total read bytes from the system interface side
system.mem_ctrls.bytesWrittenSys                 1152                       # Total written bytes from the system interface side
system.mem_ctrls.avgRdBWSys                     83.15                       # Average system read bandwidth in MiByte/s
system.mem_ctrls.avgWrBWSys                      0.32                       # Average system write bandwidth in MiByte/s
system.mem_ctrls.totGap                    3625302000                       # Total gap between requests
system.mem_ctrls.avgGap                     766772.84                       # Average gap between requests
system.mem_ctrls.requestorReadBytes::.cpu.inst       114944                       # Per-requestor bytes read from memory
system.mem_ctrls.requestorReadBytes::.cpu.data       186368                       # Per-requestor bytes read from memory
system.mem_ctrls.requestorReadRate::.cpu.inst 31705269.859168294817                       # Per-requestor bytes read from memory rate (Bytes/sec)
system.mem_ctrls.requestorReadRate::.cpu.data 51406317.277226097882                       # Per-requestor bytes read from memory rate (Bytes/sec)
system.mem_ctrls.requestorReadAccesses::.cpu.inst         1796                       # Per-requestor read serviced memory accesses
system.mem_ctrls.requestorReadAccesses::.cpu.data         2914                       # Per-requestor read serviced memory accesses
system.mem_ctrls.requestorWriteAccesses::.writebacks           18                       # Per-requestor write serviced memory accesses
system.mem_ctrls.requestorReadTotalLat::.cpu.inst     49802750                       # Per-requestor read total memory access latency
system.mem_ctrls.requestorReadTotalLat::.cpu.data     74860750                       # Per-requestor read total memory access latency
system.mem_ctrls.requestorReadAvgLat::.cpu.inst     27729.82                       # Per-requestor read average memory access latency
system.mem_ctrls.requestorReadAvgLat::.cpu.data     25690.03                       # Per-requestor read average memory access latency
system.mem_ctrls.requestorWriteAvgLat::.writebacks         0.00                       # Per-requestor write average memory access latency
system.mem_ctrls.dram.bytes_read::.cpu.inst       114944                       # Number of bytes read from this memory
system.mem_ctrls.dram.bytes_read::.cpu.data       186496                       # Number of bytes read from this memory
system.mem_ctrls.dram.bytes_read::total        301440                       # Number of bytes read from this memory
system.mem_ctrls.dram.bytes_inst_read::.cpu.inst       114944                       # Number of instructions bytes read from this memory
system.mem_ctrls.dram.bytes_inst_read::total       114944                       # Number of instructions bytes read from this memory
system.mem_ctrls.dram.bytes_written::.writebacks         1152                       # Number of bytes written to this memory
system.mem_ctrls.dram.bytes_written::total         1152                       # Number of bytes written to this memory
system.mem_ctrls.dram.num_reads::.cpu.inst         1796                       # Number of read requests responded to by this memory
system.mem_ctrls.dram.num_reads::.cpu.data         2914                       # Number of read requests responded to by this memory
system.mem_ctrls.dram.num_reads::total           4710                       # Number of read requests responded to by this memory
system.mem_ctrls.dram.num_writes::.writebacks           18                       # Number of write requests responded to by this memory
system.mem_ctrls.dram.num_writes::total            18                       # Number of write requests responded to by this memory
system.mem_ctrls.dram.bw_read::.cpu.inst     31705270                       # Total read bandwidth from this memory (bytes/s)
system.mem_ctrls.dram.bw_read::.cpu.data     51441624                       # Total read bandwidth from this memory (bytes/s)
system.mem_ctrls.dram.bw_read::total         83146894                       # Total read bandwidth from this memory (bytes/s)
system.mem_ctrls.dram.bw_inst_read::.cpu.inst     31705270                       # Instruction read bandwidth from this memory (bytes/s)
system.mem_ctrls.dram.bw_inst_read::total     31705270                       # Instruction read bandwidth from this memory (bytes/s)
system.mem_ctrls.dram.bw_write::.writebacks       317759                       # Write bandwidth from this memory (bytes/s)
system.mem_ctrls.dram.bw_write::total          317759                       # Write bandwidth from this memory (bytes/s)
system.mem_ctrls.dram.bw_total::.writebacks       317759                       # Total bandwidth to/from this memory (bytes/s)
system.mem_ctrls.dram.bw_total::.cpu.inst     31705270                       # Total bandwidth to/from this memory (bytes/s)
system.mem_ctrls.dram.bw_total::.cpu.data     51441624                       # Total bandwidth to/from this memory (bytes/s)
system.mem_ctrls.dram.bw_total::total        83464653                       # Total bandwidth to/from this memory (bytes/s)
system.mem_ctrls.dram.readBursts                 4708                       # Number of DRAM read bursts
system.mem_ctrls.dram.writeBursts                   0                       # Number of DRAM write bursts
system.mem_ctrls.dram.perBankRdBursts::0          325                       # Per bank write bursts
system.mem_ctrls.dram.perBankRdBursts::1          376                       # Per bank write bursts
system.mem_ctrls.dram.perBankRdBursts::2          436                       # Per bank write bursts
system.mem_ctrls.dram.perBankRdBursts::3          424                       # Per bank write bursts
system.mem_ctrls.dram.perBankRdBursts::4          348                       # Per bank write bursts
system.mem_ctrls.dram.perBankRdBursts::5          389                       # Per bank write bursts
system.mem_ctrls.dram.perBankRdBursts::6          254                       # Per bank write bursts
system.mem_ctrls.dram.perBankRdBursts::7          173                       # Per bank write bursts
system.mem_ctrls.dram.perBankRdBursts::8          238                       # Per bank write bursts
system.mem_ctrls.dram.perBankRdBursts::9          212                       # Per bank write bursts
system.mem_ctrls.dram.perBankRdBursts::10          304                       # Per bank write bursts
system.mem_ctrls.dram.perBankRdBursts::11          209                       # Per bank write bursts
system.mem_ctrls.dram.perBankRdBursts::12          162                       # Per bank write bursts
system.mem_ctrls.dram.perBankRdBursts::13          269                       # Per bank write bursts
system.mem_ctrls.dram.perBankRdBursts::14          291                       # Per bank write bursts
system.mem_ctrls.dram.perBankRdBursts::15          298                       # Per bank write bursts
system.mem_ctrls.dram.perBankWrBursts::0            0                       # Per bank write bursts
system.mem_ctrls.dram.perBankWrBursts::1            0                       # Per bank write bursts
system.mem_ctrls.dram.perBankWrBursts::2            0                       # Per bank write bursts
system.mem_ctrls.dram.perBankWrBursts::3            0                       # Per bank write bursts
system.mem_ctrls.dram.perBankWrBursts::4            0                       # Per bank write bursts
system.mem_ctrls.dram.perBankWrBursts::5            0                       # Per bank write bursts
system.mem_ctrls.dram.perBankWrBursts::6            0                       # Per bank write bursts
system.mem_ctrls.dram.perBankWrBursts::7            0                       # Per bank write bursts
system.mem_ctrls.dram.perBankWrBursts::8            0                       # Per bank write bursts
system.mem_ctrls.dram.perBankWrBursts::9            0                       # Per bank write bursts
system.mem_ctrls.dram.perBankWrBursts::10            0                       # Per bank write bursts
system.mem_ctrls.dram.perBankWrBursts::11            0                       # Per bank write bursts
system.mem_ctrls.dram.perBankWrBursts::12            0                       # Per bank write bursts
system.mem_ctrls.dram.perBankWrBursts::13            0                       # Per bank write bursts
system.mem_ctrls.dram.perBankWrBursts::14            0                       # Per bank write bursts
system.mem_ctrls.dram.perBankWrBursts::15            0                       # Per bank write bursts
system.mem_ctrls.dram.totQLat                36388500                       # Total ticks spent queuing
system.mem_ctrls.dram.totBusLat              23540000                       # Total ticks spent in databus transfers
system.mem_ctrls.dram.totMemAccLat          124663500                       # Total ticks spent from burst creation until serviced by the DRAM
system.mem_ctrls.dram.avgQLat                 7729.08                       # Average queueing delay per DRAM burst
system.mem_ctrls.dram.avgBusLat               5000.00                       # Average bus latency per DRAM burst
system.mem_ctrls.dram.avgMemAccLat           26479.08                       # Average memory access latency per DRAM burst
system.mem_ctrls.dram.readRowHits                3869                       # Number of row buffer hits during reads
system.mem_ctrls.dram.writeRowHits                  0                       # Number of row buffer hits during writes
system.mem_ctrls.dram.readRowHitRate            82.18                       # Row buffer hit rate for reads
system.mem_ctrls.dram.writeRowHitRate             nan                       # Row buffer hit rate for writes
system.mem_ctrls.dram.bytesPerActivate::samples          828                       # Bytes accessed per row activation
system.mem_ctrls.dram.bytesPerActivate::mean   361.584541                       # Bytes accessed per row activation
system.mem_ctrls.dram.bytesPerActivate::gmean   229.987022                       # Bytes accessed per row activation
system.mem_ctrls.dram.bytesPerActivate::stdev   321.046357                       # Bytes accessed per row activation
system.mem_ctrls.dram.bytesPerActivate::0-127          230     27.78%     27.78% # Bytes accessed per row activation
system.mem_ctrls.dram.bytesPerActivate::128-255          169     20.41%     48.19% # Bytes accessed per row activation
system.mem_ctrls.dram.bytesPerActivate::256-383           95     11.47%     59.66% # Bytes accessed per row activation
system.mem_ctrls.dram.bytesPerActivate::384-511           91     10.99%     70.65% # Bytes accessed per row activation
system.mem_ctrls.dram.bytesPerActivate::512-639           68      8.21%     78.86% # Bytes accessed per row activation
system.mem_ctrls.dram.bytesPerActivate::640-767           40      4.83%     83.70% # Bytes accessed per row activation
[...]
system.cpu.dcache.SoftPFReq_hits::total          2105                       # number of SoftPFReq hits
system.cpu.dcache.SoftPFReq_misses::.cpu.data          599                       # number of SoftPFReq misses
system.cpu.dcache.SoftPFReq_misses::total          599                       # number of SoftPFReq misses
system.cpu.dcache.SoftPFReq_accesses::.cpu.data         2704                       # number of SoftPFReq accesses(hits+misses)
system.cpu.dcache.SoftPFReq_accesses::total         2704                       # number of SoftPFReq accesses(hits+misses)
system.cpu.dcache.SoftPFReq_miss_rate::.cpu.data     0.221524                       # miss rate for SoftPFReq accesses
system.cpu.dcache.SoftPFReq_miss_rate::total     0.221524                       # miss rate for SoftPFReq accesses
system.cpu.dcache.SoftPFReq_mshr_misses::.cpu.data          414                       # number of SoftPFReq MSHR misses
system.cpu.dcache.SoftPFReq_mshr_misses::total          414                       # number of SoftPFReq MSHR misses
system.cpu.dcache.SoftPFReq_mshr_miss_latency::.cpu.data      5037500                       # number of SoftPFReq MSHR miss cycles
system.cpu.dcache.SoftPFReq_mshr_miss_latency::total      5037500                       # number of SoftPFReq MSHR miss cycles
system.cpu.dcache.SoftPFReq_mshr_miss_rate::.cpu.data     0.153107                       # mshr miss rate for SoftPFReq accesses
system.cpu.dcache.SoftPFReq_mshr_miss_rate::total     0.153107                       # mshr miss rate for SoftPFReq accesses
system.cpu.dcache.SoftPFReq_avg_mshr_miss_latency::.cpu.data 12167.874396                       # average SoftPFReq mshr miss latency
system.cpu.dcache.SoftPFReq_avg_mshr_miss_latency::total 12167.874396                       # average SoftPFReq mshr miss latency
system.cpu.dcache.power_state.pwrStateResidencyTicks::UNDEFINED   3625391000                       # Cumulative time (in ticks) in various power states
system.cpu.dcache.tags.tagsinuse           978.655937                       # Cycle average of tags in use
system.cpu.dcache.tags.total_refs             4313106                       # Total number of references to valid blocks.
system.cpu.dcache.tags.sampled_refs             72227                       # Sample count of references to valid blocks.
system.cpu.dcache.tags.avg_refs             59.715979                       # Average number of references to valid blocks.
system.cpu.dcache.tags.warmup_cycle            176500                       # Cycle when the warmup percentage was hit.
system.cpu.dcache.tags.occ_blocks::.cpu.data   978.655937                       # Average occupied blocks per requestor
system.cpu.dcache.tags.occ_percent::.cpu.data     0.955719                       # Average percentage of cache occupancy
system.cpu.dcache.tags.occ_percent::total     0.955719                       # Average percentage of cache occupancy
system.cpu.dcache.tags.occ_task_id_blocks::1024         1024                       # Occupied blocks per task id
system.cpu.dcache.tags.age_task_id_blocks_1024::0          213                       # Occupied blocks per task id
system.cpu.dcache.tags.age_task_id_blocks_1024::1          345                       # Occupied blocks per task id
system.cpu.dcache.tags.age_task_id_blocks_1024::2           38                       # Occupied blocks per task id
system.cpu.dcache.tags.age_task_id_blocks_1024::3          428                       # Occupied blocks per task id
system.cpu.dcache.tags.occ_task_id_percent::1024            1                       # Percentage of cache occupancy per task id
system.cpu.dcache.tags.tag_accesses          19446883                       # Number of tag accesses
system.cpu.dcache.tags.data_accesses         19446883                       # Number of data accesses
system.cpu.dcache.tags.power_state.pwrStateResidencyTicks::UNDEFINED   3625391000                       # Cumulative time (in ticks) in various power states
system.cpu.power_state.pwrStateResidencyTicks::ON   3625391000                       # Cumulative time (in ticks) in various power states
system.cpu.branchPred.lookups                 3062510                       # Number of BP lookups
system.cpu.branchPred.condPredicted           2899802                       # Number of conditional branches predicted
system.cpu.branchPred.condIncorrect            117358                       # Number of conditional branches incorrect
system.cpu.branchPred.BTBLookups              2517949                       # Number of BTB lookups
system.cpu.branchPred.BTBHits                 2513881                       # Number of BTB hits
system.cpu.branchPred.BTBHitPct             99.838440                       # BTB Hit Percentage
system.cpu.branchPred.RASUsed                   37105                       # Number of times the RAS was used to get a target.
system.cpu.branchPred.RASIncorrect                 15                       # Number of incorrect RAS predictions.
system.cpu.branchPred.indirectLookups           11916                       # Number of indirect predictor lookups.
system.cpu.branchPred.indirectHits               8766                       # Number of indirect target hits.
system.cpu.branchPred.indirectMisses             3150                       # Number of indirect misses.
system.cpu.branchPred.indirectMispredicted          463                       # Number of mispredicted indirect branches.
system.cpu.commit.commitSquashedInsts         4154202                       # The number of squashed insts skipped by commit
system.cpu.commit.commitNonSpecStalls             199                       # The number of times commit has been forced to stall to communicate backwards
system.cpu.commit.branchMispredicts            115023                       # The number of times a branch was mispredicted
system.cpu.commit.numCommittedDist::samples      6536094                       # Number of insts commited each cycle
system.cpu.commit.numCommittedDist::mean     3.524235                       # Number of insts commited each cycle
system.cpu.commit.numCommittedDist::stdev     3.461674                       # Number of insts commited each cycle
system.cpu.commit.numCommittedDist::underflows            0      0.00%      0.00% # Number of insts commited each cycle
system.cpu.commit.numCommittedDist::0         1990348     30.45%     30.45% # Number of insts commited each cycle
system.cpu.commit.numCommittedDist::1         1040476     15.92%     46.37% # Number of insts commited each cycle
system.cpu.commit.numCommittedDist::2          495140      7.58%     53.95% # Number of insts commited each cycle
system.cpu.commit.numCommittedDist::3          295695      4.52%     58.47% # Number of insts commited each cycle
system.cpu.commit.numCommittedDist::4          289965      4.44%     62.91% # Number of insts commited each cycle
system.cpu.commit.numCommittedDist::5           80663      1.23%     64.14% # Number of insts commited each cycle
system.cpu.commit.numCommittedDist::6           56101      0.86%     65.00% # Number of insts commited each cycle
system.cpu.commit.numCommittedDist::7           84541      1.29%     66.29% # Number of insts commited each cycle
system.cpu.commit.numCommittedDist::8         2203165     33.71%    100.00% # Number of insts commited each cycle
system.cpu.commit.numCommittedDist::overflows            0      0.00%    100.00% # Number of insts commited each cycle
system.cpu.commit.numCommittedDist::min_value            0                       # Number of insts commited each cycle
system.cpu.commit.numCommittedDist::max_value            8                       # Number of insts commited each cycle
system.cpu.commit.numCommittedDist::total      6536094                       # Number of insts commited each cycle
system.cpu.commit.instsCommitted             11753748                       # Number of instructions committed
system.cpu.commit.opsCommitted               23034729                       # Number of ops (including micro ops) committed
system.cpu.commit.memRefs                     4539604                       # Number of memory references committed
system.cpu.commit.loads                       4085030                       # Number of loads committed
system.cpu.commit.amos                              0                       # Number of atomic instructions committed
system.cpu.commit.membars                           0                       # Number of memory barriers committed
system.cpu.commit.branches                    2257234                       # Number of branches committed
system.cpu.commit.vector                            0                       # Number of committed Vector instructions.
system.cpu.commit.floating                    4483498                       # Number of committed floating point instructions.
system.cpu.commit.integer                    20467831                       # Number of committed integer instructions.
system.cpu.commit.functionCalls                 27379                       # Number of function calls committed.
system.cpu.commit.committedInstType_0::No_OpClass       134212      0.58%      0.58% # Class of committed instruction
system.cpu.commit.committedInstType_0::IntAlu     15318559     66.50%     67.08% # Class of committed instruction
system.cpu.commit.committedInstType_0::IntMult        18643      0.08%     67.17% # Class of committed instruction
system.cpu.commit.committedInstType_0::IntDiv       567325      2.46%     69.63% # Class of committed instruction
system.cpu.commit.committedInstType_0::FloatAdd       197707      0.86%     70.49% # Class of committed instruction
system.cpu.commit.committedInstType_0::FloatCmp            0      0.00%     70.49% # Class of committed instruction
system.cpu.commit.committedInstType_0::FloatCvt            0      0.00%     70.49% # Class of committed instruction
system.cpu.commit.committedInstType_0::FloatMult            0      0.00%     70.49% # Class of committed instruction
system.cpu.commit.committedInstType_0::FloatMultAcc            0      0.00%     70.49% # Class of committed instruction
system.cpu.commit.committedInstType_0::FloatDiv            0      0.00%     70.49% # Class of committed instruction
system.cpu.commit.committedInstType_0::FloatMisc            0      0.00%     70.49% # Class of committed instruction
system.cpu.commit.committedInstType_0::FloatSqrt            0      0.00%     70.49% # Class of committed instruction
system.cpu.commit.committedInstType_0::SimdAdd         2442      0.01%     70.50% # Class of committed instruction
system.cpu.commit.committedInstType_0::SimdAddAcc            0      0.00%     70.50% # Class of committed instruction
system.cpu.commit.committedInstType_0::SimdAlu       323704      1.41%     71.90% # Class of committed instruction
system.cpu.commit.committedInstType_0::SimdCmp            0      0.00%     71.90% # Class of committed instruction
system.cpu.commit.committedInstType_0::SimdCvt        11138      0.05%     71.95% # Class of committed instruction
system.cpu.commit.committedInstType_0::SimdMisc        55423      0.24%     72.19% # Class of committed instruction
system.cpu.commit.committedInstType_0::SimdMult            0      0.00%     72.19% # Class of committed instruction
system.cpu.commit.committedInstType_0::SimdMultAcc            0      0.00%     72.19% # Class of committed instruction
system.cpu.commit.committedInstType_0::SimdShift         1222      0.01%     72.20% # Class of committed instruction
system.cpu.commit.committedInstType_0::SimdShiftAcc            0      0.00%     72.20% # Class of committed instruction
system.cpu.commit.committedInstType_0::SimdDiv            0      0.00%     72.20% # Class of committed instruction
system.cpu.commit.committedInstType_0::SimdSqrt            0      0.00%     72.20% # Class of committed instruction
system.cpu.commit.committedInstType_0::SimdFloatAdd      1667728      7.24%     79.44% # Class of committed instruction
system.cpu.commit.committedInstType_0::SimdFloatAlu            0      0.00%     79.44% # Class of committed instruction
system.cpu.commit.committedInstType_0::SimdFloatCmp            0      0.00%     79.44% # Class of committed instruction
system.cpu.commit.committedInstType_0::SimdFloatCvt        98667      0.43%     79.87% # Class of committed instruction
system.cpu.commit.committedInstType_0::SimdFloatDiv        49203      0.21%     80.08% # Class of committed instruction
system.cpu.commit.committedInstType_0::SimdFloatMisc            0      0.00%     80.08% # Class of committed instruction
system.cpu.commit.committedInstType_0::SimdFloatMult        49152      0.21%     80.29% # Class of committed instruction
system.cpu.commit.committedInstType_0::SimdFloatMultAcc            0      0.00%     80.29% # Class of committed instruction
system.cpu.commit.committedInstType_0::SimdFloatSqrt            0      0.00%     80.29% # Class of committed instruction
system.cpu.commit.committedInstType_0::SimdReduceAdd            0      0.00%     80.29% # Class of committed instruction
system.cpu.commit.committedInstType_0::SimdReduceAlu            0      0.00%     80.29% # Class of committed instruction
system.cpu.commit.committedInstType_0::SimdReduceCmp            0      0.00%     80.29% # Class of committed instruction
system.cpu.commit.committedInstType_0::SimdFloatReduceAdd            0      0.00%     80.29% # Class of committed instruction
system.cpu.commit.committedInstType_0::SimdFloatReduceCmp            0      0.00%     80.29% # Class of committed instruction
system.cpu.commit.committedInstType_0::SimdAes            0      0.00%     80.29% # Class of committed instruction
system.cpu.commit.committedInstType_0::SimdAesMix            0      0.00%     80.29% # Class of committed instruction
system.cpu.commit.committedInstType_0::SimdSha1Hash            0      0.00%     80.29% # Class of committed instruction
system.cpu.commit.committedInstType_0::SimdSha1Hash2            0      0.00%     80.29% # Class of committed instruction
system.cpu.commit.committedInstType_0::SimdSha256Hash            0      0.00%     80.29% # Class of committed instruction
system.cpu.commit.committedInstType_0::SimdSha256Hash2            0      0.00%     80.29% # Class of committed instruction
system.cpu.commit.committedInstType_0::SimdShaSigma2            0      0.00%     80.29% # Class of committed instruction
system.cpu.commit.committedInstType_0::SimdShaSigma3            0      0.00%     80.29% # Class of committed instruction
system.cpu.commit.committedInstType_0::SimdPredAlu            0      0.00%     80.29% # Class of committed instruction
system.cpu.commit.committedInstType_0::MemRead      2245128      9.75%     90.04% # Class of committed instruction
system.cpu.commit.committedInstType_0::MemWrite       286823      1.25%     91.28% # Class of committed instruction
system.cpu.commit.committedInstType_0::FloatMemRead      1839902      7.99%     99.27% # Class of committed instruction
system.cpu.commit.committedInstType_0::FloatMemWrite       167751      0.73%    100.00% # Class of committed instruction
system.cpu.commit.committedInstType_0::IprAccess            0      0.00%    100.00% # Class of committed instruction
system.cpu.commit.committedInstType_0::InstPrefetch            0      0.00%    100.00% # Class of committed instruction
system.cpu.commit.committedInstType_0::total     23034729                       # Class of committed instruction
system.cpu.commit.commitEligibleSamples       2203165                       # number cycles where commit BW limit reached
system.cpu.thread0.numInsts                  11753748                       # Number of Instructions committed
system.cpu.thread0.numOps                    23034729                       # Number of Ops committed
system.cpu.thread0.numMemRefs                       0                       # Number of Memory References
system.cpu.fetch.icacheStallCycles             839567                       # Number of cycles fetch is stalled on an Icache miss
system.cpu.fetch.insts                       15783194                       # Number of instructions fetch has processed
system.cpu.fetch.branches                     3062510                       # Number of branches that fetch encountered
system.cpu.fetch.predictedBranches            2559752                       # Number of branches that fetch has predicted taken
system.cpu.fetch.cycles                       6159332                       # Number of cycles fetch has run and was not squashing or blocked
system.cpu.fetch.squashCycles                  238954                       # Number of cycles fetch has spent squashing
system.cpu.fetch.miscStallCycles                  427                       # Number of cycles fetch has spent waiting on interrupts,or bad addresses, or out of MSHRs
system.cpu.fetch.pendingTrapStallCycles          2830                       # Number of stall cycles due to pending traps
system.cpu.fetch.pendingQuiesceStallCycles            1                       # Number of stall cycles due to pending quiesce instructions
system.cpu.fetch.icacheWaitRetryStallCycles           72                       # Number of stall cycles due to full MSHR
system.cpu.fetch.cacheLines                    753155                       # Number of cache lines fetched
system.cpu.fetch.icacheSquashes                 20903                       # Number of outstanding Icache misses that were squashed
system.cpu.fetch.nisnDist::samples            7121706                       # Number of instructions fetched each cycle (Total)
system.cpu.fetch.nisnDist::mean              4.225316                       # Number of instructions fetched each cycle (Total)
system.cpu.fetch.nisnDist::stdev             3.383260                       # Number of instructions fetched each cycle (Total)
system.cpu.fetch.nisnDist::underflows               0      0.00%      0.00% # Number of instructions fetched each cycle (Total)
system.cpu.fetch.nisnDist::0                  1665036     23.38%     23.38% # Number of instructions fetched each cycle (Total)
system.cpu.fetch.nisnDist::1                    65965      0.93%     24.31% # Number of instructions fetched each cycle (Total)
system.cpu.fetch.nisnDist::2                  1816623     25.51%     49.81% # Number of instructions fetched each cycle (Total)
system.cpu.fetch.nisnDist::3                   134799      1.89%     51.71% # Number of instructions fetched each cycle (Total)
system.cpu.fetch.nisnDist::4                   155099      2.18%     53.88% # Number of instructions fetched each cycle (Total)
system.cpu.fetch.nisnDist::5                   114014      1.60%     55.49% # Number of instructions fetched each cycle (Total)
system.cpu.fetch.nisnDist::6                   177648      2.49%     57.98% # Number of instructions fetched each cycle (Total)
system.cpu.fetch.nisnDist::7                   208678      2.93%     60.91% # Number of instructions fetched each cycle (Total)
system.cpu.fetch.nisnDist::8                  2783844     39.09%    100.00% # Number of instructions fetched each cycle (Total)
system.cpu.fetch.nisnDist::overflows                0      0.00%    100.00% # Number of instructions fetched each cycle (Total)
system.cpu.fetch.nisnDist::min_value                0                       # Number of instructions fetched each cycle (Total)
system.cpu.fetch.nisnDist::max_value                8                       # Number of instructions fetched each cycle (Total)
system.cpu.fetch.nisnDist::total              7121706                       # Number of instructions fetched each cycle (Total)
system.cpu.fetch.branchRate                  0.422370                       # Number of branch fetches per cycle
system.cpu.fetch.rate                        2.176757                       # Number of inst fetches per cycle

---------- End Simulation Statistics   ----------
