
---------- Begin Simulation Statistics ----------
final_tick                                 3639727000                       # Number of ticks from beginning of simulation (restored from checkpoints and never reset)
host_inst_rate                                 141089                       # Simulator instruction rate (inst/s)
host_mem_usage                                 727144                       # Number of bytes of host memory used
host_op_rate                                   276502                       # Simulator op (including micro ops) rate (op/s)
host_seconds                                    83.31                       # Real time elapsed on the host
host_tick_rate                               43689444                       # Simulator tick rate (ticks/s)
sim_freq                                 1000000000000                       # Frequency of simulated ticks
sim_insts                                    11753987                       # Number of instructions simulated
sim_ops                                      23035158                       # Number of ops (including micro ops) simulated
sim_seconds                                  0.003640                       # Number of seconds simulated
sim_ticks                                  3639727000                       # Number of ticks simulated
system.cpu.cc_regfile_reads                  12233817                       # number of cc regfile reads
system.cpu.cc_regfile_writes                  9767543                       # number of cc regfile writes
system.cpu.committedInsts                    11753987                       # Number of Instructions Simulated
system.cpu.committedOps                      23035158                       # Number of Ops (including micro ops) Simulated
system.cpu.cpi                               0.619318                       # CPI: Cycles Per Instruction
system.cpu.cpi_total                         0.619318                       # CPI: Total CPI of All Threads
system.cpu.fp_regfile_reads                   6463799                       # number of floating regfile reads
system.cpu.fp_regfile_writes                  4332323                       # number of floating regfile writes
system.cpu.idleCycles                          126609                       # Total number of cycles that the CPU has spent unscheduled due to idling
system.cpu.iew.branchMispredicts               122018                       # Number of branch mispredicts detected at execute
system.cpu.iew.exec_branches                  2437465                       # Number of branches executed
system.cpu.iew.exec_nop                             0                       # number of nop insts executed
system.cpu.iew.exec_rate                     3.491437                       # Inst execution rate
system.cpu.iew.exec_refs                      4909208                       # number of memory reference insts executed
system.cpu.iew.exec_stores                     534815                       # Number of stores executed
system.cpu.iew.exec_swp                             0                       # number of swp insts executed
system.cpu.iew.iewBlockCycles                  474051                       # Number of cycles IEW is blocking
system.cpu.iew.iewDispLoadInsts               4688982                       # Number of dispatched load instructions
system.cpu.iew.iewDispNonSpecInsts                199                       # Number of dispatched non-speculative instructions
system.cpu.iew.iewDispSquashedInsts             11223                       # Number of squashed instructions skipped by dispatch
system.cpu.iew.iewDispStoreInsts               716597                       # Number of dispatched store instructions
system.cpu.iew.iewDispatchedInsts            27253075                       # Number of instructions dispatched to IQ
system.cpu.iew.iewExecLoadInsts               4374393                       # Number of load instructions executed
system.cpu.iew.iewExecSquashedInsts            279904                       # Number of squashed instructions skipped in execute
system.cpu.iew.iewExecutedInsts              25415759                       # Number of executed instructions
system.cpu.iew.iewIQFullEvents                    477                       # Number of times the IQ has become full, causing a stall
system.cpu.iew.iewIdleCycles                        0                       # Number of cycles IEW is idle
system.cpu.iew.iewLSQFullEvents                 64931                       # Number of times the LSQ has become full, causing a stall
system.cpu.iew.iewSquashCycles                 116747                       # Number of cycles IEW is squashing
system.cpu.iew.iewUnblockCycles                 65864                       # Number of cycles IEW is unblocking
system.cpu.iew.memOrderViolationEvents            309                       # Number of memory order violations
system.cpu.iew.predictedNotTakenIncorrect        41513                       # Number of branches that were predicted not taken incorrectly
system.cpu.iew.predictedTakenIncorrect          80505                       # Number of branches that were predicted taken incorrectly
system.cpu.iew.wb_consumers                  33928986                       # num instructions consuming a value
system.cpu.iew.wb_count                      25252442                       # cumulative count of insts written-back
system.cpu.iew.wb_fanout                     0.627077                       # average fanout of values written-back
system.cpu.iew.wb_producers                  21276095                       # num instructions producing a value
system.cpu.iew.wb_rate                       3.469002                       # insts written-back per cycle
system.cpu.iew.wb_sent                       25299135                       # cumulative count of insts sent to commit
system.cpu.int_regfile_reads                 31870239                       # number of integer regfile reads
system.cpu.int_regfile_writes                19229361                       # number of integer regfile writes
system.cpu.ipc                               1.614680                       # IPC: Instructions Per Cycle
system.cpu.ipc_total                         1.614680                       # IPC: Total IPC of All Threads
system.cpu.iq.FU_type_0::No_OpClass            165911      0.65%      0.65% # Type of FU issued
system.cpu.iq.FU_type_0::IntAlu              17453954     67.93%     68.57% # Type of FU issued
system.cpu.iq.FU_type_0::IntMult                18967      0.07%     68.65% # Type of FU issued
system.cpu.iq.FU_type_0::IntDiv                630589      2.45%     71.10% # Type of FU issued
system.cpu.iq.FU_type_0::FloatAdd              198422      0.77%     71.87% # Type of FU issued
system.cpu.iq.FU_type_0::FloatCmp                   0      0.00%     71.87% # Type of FU issued
system.cpu.iq.FU_type_0::FloatCvt                   0      0.00%     71.87% # Type of FU issued
system.cpu.iq.FU_type_0::FloatMult                  0      0.00%     71.87% # Type of FU issued
system.cpu.iq.FU_type_0::FloatMultAcc               0      0.00%     71.87% # Type of FU issued
system.cpu.iq.FU_type_0::FloatDiv                   0      0.00%     71.87% # Type of FU issued
system.cpu.iq.FU_type_0::FloatMisc                  0      0.00%     71.87% # Type of FU issued
system.cpu.iq.FU_type_0::FloatSqrt                  0      0.00%     71.87% # Type of FU issued
system.cpu.iq.FU_type_0::SimdAdd                 2446      0.01%     71.88% # Type of FU issued
system.cpu.iq.FU_type_0::SimdAddAcc                 0      0.00%     71.88% # Type of FU issued
system.cpu.iq.FU_type_0::SimdAlu               324148      1.26%     73.14% # Type of FU issued
system.cpu.iq.FU_type_0::SimdCmp                    0      0.00%     73.14% # Type of FU issued
system.cpu.iq.FU_type_0::SimdCvt                11148      0.04%     73.19% # Type of FU issued
system.cpu.iq.FU_type_0::SimdMisc               55479      0.22%     73.40% # Type of FU issued
system.cpu.iq.FU_type_0::SimdMult                   0      0.00%     73.40% # Type of FU issued
system.cpu.iq.FU_type_0::SimdMultAcc                0      0.00%     73.40% # Type of FU issued
system.cpu.iq.FU_type_0::SimdShift               1233      0.00%     73.41% # Type of FU issued
system.cpu.iq.FU_type_0::SimdShiftAcc               0      0.00%     73.41% # Type of FU issued
system.cpu.iq.FU_type_0::SimdDiv                    0      0.00%     73.41% # Type of FU issued
system.cpu.iq.FU_type_0::SimdSqrt                   0      0.00%     73.41% # Type of FU issued
system.cpu.iq.FU_type_0::SimdFloatAdd         1667728      6.49%     79.90% # Type of FU issued
system.cpu.iq.FU_type_0::SimdFloatAlu               0      0.00%     79.90% # Type of FU issued
system.cpu.iq.FU_type_0::SimdFloatCmp               0      0.00%     79.90% # Type of FU issued
system.cpu.iq.FU_type_0::SimdFloatCvt           98704      0.38%     80.28% # Type of FU issued
system.cpu.iq.FU_type_0::SimdFloatDiv           49224      0.19%     80.47% # Type of FU issued
system.cpu.iq.FU_type_0::SimdFloatMisc              0      0.00%     80.47% # Type of FU issued
system.cpu.iq.FU_type_0::SimdFloatMult          49152      0.19%     80.66% # Type of FU issued
system.cpu.iq.FU_type_0::SimdFloatMultAcc            0      0.00%     80.66% # Type of FU issued
system.cpu.iq.FU_type_0::SimdFloatSqrt              0      0.00%     80.66% # Type of FU issued
system.cpu.iq.FU_type_0::SimdReduceAdd              0      0.00%     80.66% # Type of FU issued
system.cpu.iq.FU_type_0::SimdReduceAlu              0      0.00%     80.66% # Type of FU issued
system.cpu.iq.FU_type_0::SimdReduceCmp              0      0.00%     80.66% # Type of FU issued
system.cpu.iq.FU_type_0::SimdFloatReduceAdd            0      0.00%     80.66% # Type of FU issued
system.cpu.iq.FU_type_0::SimdFloatReduceCmp            0      0.00%     80.66% # Type of FU issued
system.cpu.iq.FU_type_0::SimdAes                    0      0.00%     80.66% # Type of FU issued
system.cpu.iq.FU_type_0::SimdAesMix                 0      0.00%     80.66% # Type of FU issued
system.cpu.iq.FU_type_0::SimdSha1Hash               0      0.00%     80.66% # Type of FU issued
system.cpu.iq.FU_type_0::SimdSha1Hash2              0      0.00%     80.66% # Type of FU issued
system.cpu.iq.FU_type_0::SimdSha256Hash             0      0.00%     80.66% # Type of FU issued
system.cpu.iq.FU_type_0::SimdSha256Hash2            0      0.00%     80.66% # Type of FU issued
system.cpu.iq.FU_type_0::SimdShaSigma2              0      0.00%     80.66% # Type of FU issued
system.cpu.iq.FU_type_0::SimdShaSigma3              0      0.00%     80.66% # Type of FU issued
system.cpu.iq.FU_type_0::SimdPredAlu                0      0.00%     80.66% # Type of FU issued
system.cpu.iq.FU_type_0::MemRead              2552594      9.93%     90.60% # Type of FU issued
system.cpu.iq.FU_type_0::MemWrite              370689      1.44%     92.04% # Type of FU issued
system.cpu.iq.FU_type_0::FloatMemRead         1866325      7.26%     99.30% # Type of FU issued
system.cpu.iq.FU_type_0::FloatMemWrite         178950      0.70%    100.00% # Type of FU issued
system.cpu.iq.FU_type_0::IprAccess                  0      0.00%    100.00% # Type of FU issued
system.cpu.iq.FU_type_0::InstPrefetch               0      0.00%    100.00% # Type of FU issued
system.cpu.iq.FU_type_0::total               25695663                       # Type of FU issued
system.cpu.iq.fp_alu_accesses                 4638575                       # Number of floating point alu accesses
system.cpu.iq.fp_inst_queue_reads             9162258                       # Number of floating instruction queue reads
system.cpu.iq.fp_inst_queue_wakeup_accesses      4510578                       # Number of floating instruction queue wakeup accesses
system.cpu.iq.fp_inst_queue_writes            5037288                       # Number of floating instruction queue writes
system.cpu.iq.fu_busy_cnt                      229913                       # FU busy when requested
system.cpu.iq.fu_busy_rate                   0.008948                       # FU busy rate (busy events/executed inst)
system.cpu.iq.fu_full::No_OpClass                   0      0.00%      0.00% # attempts to use FU when none available
system.cpu.iq.fu_full::IntAlu                   97587     42.45%     42.45% # attempts to use FU when none available
system.cpu.iq.fu_full::IntMult                      0      0.00%     42.45% # attempts to use FU when none available
system.cpu.iq.fu_full::IntDiv                       0      0.00%     42.45% # attempts to use FU when none available
system.cpu.iq.fu_full::FloatAdd                     0      0.00%     42.45% # attempts to use FU when none available
system.cpu.iq.fu_full::FloatCmp                     0      0.00%     42.45% # attempts to use FU when none available
system.cpu.iq.fu_full::FloatCvt                     0      0.00%     42.45% # attempts to use FU when none available
system.cpu.iq.fu_full::FloatMult                    0      0.00%     42.45% # attempts to use FU when none available
system.cpu.iq.fu_full::FloatMultAcc                 0      0.00%     42.45% # attempts to use FU when none available
system.cpu.iq.fu_full::FloatDiv                     0      0.00%     42.45% # attempts to use FU when none available
system.cpu.iq.fu_full::FloatMisc                    0      0.00%     42.45% # attempts to use FU when none available
system.cpu.iq.fu_full::FloatSqrt                    0      0.00%     42.45% # attempts to use FU when none available
system.cpu.iq.fu_full::SimdAdd                      0      0.00%     42.45% # attempts to use FU when none available
system.cpu.iq.fu_full::SimdAddAcc                   0      0.00%     42.45% # attempts to use FU when none available
system.cpu.iq.fu_full::SimdAlu                    282      0.12%     42.57% # attempts to use FU when none available
system.cpu.iq.fu_full::SimdCmp                      0      0.00%     42.57% # attempts to use FU when none available
system.cpu.iq.fu_full::SimdCvt                     66      0.03%     42.60% # attempts to use FU when none available
system.cpu.iq.fu_full::SimdMisc                    82      0.04%     42.63% # attempts to use FU when none available
system.cpu.iq.fu_full::SimdMult                     0      0.00%     42.63% # attempts to use FU when none available
system.cpu.iq.fu_full::SimdMultAcc                  0      0.00%     42.63% # attempts to use FU when none available
system.cpu.iq.fu_full::SimdShift                    0      0.00%     42.63% # attempts to use FU when none available
system.cpu.iq.fu_full::SimdShiftAcc                 0      0.00%     42.63% # attempts to use FU when none available
system.cpu.iq.fu_full::SimdDiv                      0      0.00%     42.63% # attempts to use FU when none available
system.cpu.iq.fu_full::SimdSqrt                     0      0.00%     42.63% # attempts to use FU when none available
system.cpu.iq.fu_full::SimdFloatAdd                 0      0.00%     42.63% # attempts to use FU when none available
system.cpu.iq.fu_full::SimdFloatAlu                 0      0.00%     42.63% # attempts to use FU when none available
system.cpu.iq.fu_full::SimdFloatCmp                 0      0.00%     42.63% # attempts to use FU when none available
system.cpu.iq.fu_full::SimdFloatCvt                 0      0.00%     42.63% # attempts to use FU when none available
system.cpu.iq.fu_full::SimdFloatDiv                 0      0.00%     42.63% # attempts to use FU when none available
system.cpu.iq.fu_full::SimdFloatMisc                0      0.00%     42.63% # attempts to use FU when none available
system.cpu.iq.fu_full::SimdFloatMult                0      0.00%     42.63% # attempts to use FU when none available
system.cpu.iq.fu_full::SimdFloatMultAcc             0      0.00%     42.63% # attempts to use FU when none available
system.cpu.iq.fu_full::SimdFloatSqrt                0      0.00%     42.63% # attempts to use FU when none available
system.cpu.iq.fu_full::SimdReduceAdd                0      0.00%     42.63% # attempts to use FU when none available
system.cpu.iq.fu_full::SimdReduceAlu                0      0.00%     42.63% # attempts to use FU when none available
system.cpu.iq.fu_full::SimdReduceCmp                0      0.00%     42.63% # attempts to use FU when none available
system.cpu.iq.fu_full::SimdFloatReduceAdd            0      0.00%     42.63% # attempts to use FU when none available
system.cpu.iq.fu_full::SimdFloatReduceCmp            0      0.00%     42.63% # attempts to use FU when none available
system.cpu.iq.fu_full::SimdAes                      0      0.00%     42.63% # attempts to use FU when none available
system.cpu.iq.fu_full::SimdAesMix                   0      0.00%     42.63% # attempts to use FU when none available
system.cpu.iq.fu_full::SimdSha1Hash                 0      0.00%     42.63% # attempts to use FU when none available
system.cpu.iq.fu_full::SimdSha1Hash2                0      0.00%     42.63% # attempts to use FU when none available
system.cpu.iq.fu_full::SimdSha256Hash               0      0.00%     42.63% # attempts to use FU when none available
system.cpu.iq.fu_full::SimdSha256Hash2              0      0.00%     42.63% # attempts to use FU when none available
system.cpu.iq.fu_full::SimdShaSigma2                0      0.00%     42.63% # attempts to use FU when none available
system.cpu.iq.fu_full::SimdShaSigma3                0      0.00%     42.63% # attempts to use FU when none available
system.cpu.iq.fu_full::SimdPredAlu                  0      0.00%     42.63% # attempts to use FU when none available
system.cpu.iq.fu_full::MemRead                  14858      6.46%     49.09% # attempts to use FU when none available
system.cpu.iq.fu_full::MemWrite                  1336      0.58%     49.68% # attempts to use FU when none available
system.cpu.iq.fu_full::FloatMemRead            112114     48.76%     98.44% # attempts to use FU when none available
system.cpu.iq.fu_full::FloatMemWrite             3588      1.56%    100.00% # attempts to use FU when none available
system.cpu.iq.fu_full::IprAccess                    0      0.00%    100.00% # attempts to use FU when none available
system.cpu.iq.fu_full::InstPrefetch                 0      0.00%    100.00% # attempts to use FU when none available
system.cpu.iq.int_alu_accesses               21121090                       # Number of integer alu accesses
system.cpu.iq.int_inst_queue_reads           49623637                       # Number of integer instruction queue reads
system.cpu.iq.int_inst_queue_wakeup_accesses     20741864                       # Number of integer instruction queue wakeup accesses
system.cpu.iq.int_inst_queue_writes          26433971                       # Number of integer instruction queue writes
system.cpu.iq.iqInstsAdded                   27250824                       # Number of instructions added to the IQ (excludes non-spec)
system.cpu.iq.iqInstsIssued                  25695663                       # Number of instructions issued
system.cpu.iq.iqNonSpecInstsAdded                2251                       # Number of non-speculative instructions added to the IQ
system.cpu.iq.iqSquashedInstsExamined         4217911                       # Number of squashed instructions iterated over during squash; mainly for profiling
system.cpu.iq.iqSquashedInstsIssued             11810                       # Number of squashed instructions issued
system.cpu.iq.iqSquashedNonSpecRemoved           2052                       # Number of squashed non-spec instructions that were removed
system.cpu.iq.iqSquashedOperandsExamined      6305212                       # Number of squashed operands that are examined and possibly removed from graph
system.cpu.iq.issued_per_cycle::samples       7152846                       # Number of insts issued each cycle
system.cpu.iq.issued_per_cycle::mean         3.592369                       # Number of insts issued each cycle
system.cpu.iq.issued_per_cycle::stdev        2.346698                       # Number of insts issued each cycle
system.cpu.iq.issued_per_cycle::underflows            0      0.00%      0.00% # Number of insts issued each cycle
system.cpu.iq.issued_per_cycle::0             1288284     18.01%     18.01% # Number of insts issued each cycle
system.cpu.iq.issued_per_cycle::1              359539      5.03%     23.04% # Number of insts issued each cycle
system.cpu.iq.issued_per_cycle::2              484741      6.78%     29.81% # Number of insts issued each cycle
system.cpu.iq.issued_per_cycle::3             1109056     15.51%     45.32% # Number of insts issued each cycle
system.cpu.iq.issued_per_cycle::4             1246488     17.43%     62.75% # Number of insts issued each cycle
system.cpu.iq.issued_per_cycle::5             1015587     14.20%     76.94% # Number of insts issued each cycle
system.cpu.iq.issued_per_cycle::6              902066     12.61%     89.56% # Number of insts issued each cycle
system.cpu.iq.issued_per_cycle::7              413489      5.78%     95.34% # Number of insts issued each cycle
system.cpu.iq.issued_per_cycle::8              333596      4.66%    100.00% # Number of insts issued each cycle
system.cpu.iq.issued_per_cycle::overflows            0      0.00%    100.00% # Number of insts issued each cycle
system.cpu.iq.issued_per_cycle::min_value            0                       # Number of insts issued each cycle
system.cpu.iq.issued_per_cycle::max_value            8                       # Number of insts issued each cycle
system.cpu.iq.issued_per_cycle::total         7152846                       # Number of insts issued each cycle
system.cpu.iq.rate                           3.529888                       # Inst issue rate
system.cpu.iq.vec_alu_accesses                      0                       # Number of vector alu accesses
system.cpu.iq.vec_inst_queue_reads                  0                       # Number of vector instruction queue reads
system.cpu.iq.vec_inst_queue_wakeup_accesses            0                       # Number of vector instruction queue wakeup accesses
system.cpu.iq.vec_inst_queue_writes                 0                       # Number of vector instruction queue writes
system.cpu.memDep0.conflictingLoads            281819                       # Number of conflicting loads.
system.cpu.memDep0.conflictingStores           235596                       # Number of conflicting stores.
system.cpu.memDep0.insertedLoads              4688982                       # Number of loads inserted to the mem dependence unit.
system.cpu.memDep0.insertedStores              716597                       # Number of stores inserted to the mem dependence unit.
system.cpu.misc_regfile_reads                 9784968                       # number of misc regfile reads
system.cpu.numCycles                          7279455                       # number of cpu cycles simulated
system.cpu.numWorkItemsCompleted                    0                       # number of work items this cpu completed
system.cpu.numWorkItemsStarted                      0                       # number of work items this cpu started
system.cpu.timesIdled                            1121                       # Number of times that the entire CPU went into an idle state and unscheduled itself
system.cpu.workload.numSyscalls                   163                       # Number of system calls
system.membus.snoop_filter.hit_multi_requests            0                       # Number of requests hitting in the snoop filter with multiple (>1) holders of the requested data.
system.membus.snoop_filter.hit_multi_snoops            0                       # Number of snoops hitting in the snoop filter with multiple (>1) holders of the requested data.
system.membus.snoop_filter.hit_single_requests           14                       # Number of requests hitting in the snoop filter with a single holder of the requested data.
system.membus.snoop_filter.hit_single_snoops            0                       # Number of snoops hitting in the snoop filter with a single holder of the requested data.
system.membus.snoop_filter.tot_requests          4719                       # Total number of requests made to the snoop filter.
system.membus.snoop_filter.tot_snoops               0                       # Total number of snoops made to the snoop filter.
system.tol2bus.snoop_filter.hit_multi_requests          106                       # Number of requests hitting in the snoop filter with multiple (>1) holders of the requested data.
system.tol2bus.snoop_filter.hit_multi_snoops            0                       # Number of snoops hitting in the snoop filter with multiple (>1) holders of the requested data.
system.tol2bus.snoop_filter.hit_single_requests        94820                       # Number of requests hitting in the snoop filter with a single holder of the requested data.
system.tol2bus.snoop_filter.hit_single_snoops           61                       # Number of snoops hitting in the snoop filter with a single holder of the requested data.
system.tol2bus.snoop_filter.tot_requests       191687                       # Total number of requests made to the snoop filter.
system.tol2bus.snoop_filter.tot_snoops             61                       # Total number of snoops made to the snoop filter.
system.membus.trans_dist::ReadResp               2049                       # Transaction distribution
system.membus.trans_dist::WritebackDirty            3                       # Transaction distribution
system.membus.trans_dist::CleanEvict               11                       # Transaction distribution
system.membus.trans_dist::ReadExReq              2656                       # Transaction distribution
system.membus.trans_dist::ReadExResp             2656                       # Transaction distribution
system.membus.trans_dist::ReadSharedReq          2049                       # Transaction distribution
system.membus.pkt_count_system.l2.mem_side_port::system.mem_ctrls.port         9424                       # Packet count per connected requestor and responder (bytes)
system.membus.pkt_count_system.l2.mem_side_port::total         9424                       # Packet count per connected requestor and responder (bytes)
system.membus.pkt_count::total                   9424                       # Packet count per connected requestor and responder (bytes)
system.membus.pkt_size_system.l2.mem_side_port::system.mem_ctrls.port       301312                       # Cumulative packet size per connected requestor and responder (bytes)
system.membus.pkt_size_system.l2.mem_side_port::total       301312                       # Cumulative packet size per connected requestor and responder (bytes)
system.membus.pkt_size::total                  301312                       # Cumulative packet size per connected requestor and responder (bytes)
system.membus.snoops                                0                       # Total snoops (count)
system.membus.snoopTraffic                          0                       # Total snoop traffic (bytes)
system.membus.snoop_fanout::samples              4705                       # Request fanout histogram
system.membus.snoop_fanout::mean                    0                       # Request fanout histogram
system.membus.snoop_fanout::stdev                   0                       # Request fanout histogram
system.membus.snoop_fanout::underflows              0      0.00%      0.00% # Request fanout histogram
system.membus.snoop_fanout::0                    4705    100.00%    100.00% # Request fanout histogram
system.membus.snoop_fanout::1                       0      0.00%    100.00% # Request fanout histogram
system.membus.snoop_fanout::overflows               0      0.00%    100.00% # Request fanout histogram
system.membus.snoop_fanout::min_value               0                       # Request fanout histogram
system.membus.snoop_fanout::max_value               0                       # Request fanout histogram
system.membus.snoop_fanout::total                4705                       # Request fanout histogram
system.membus.reqLayer2.occupancy             5739500                       # Layer occupancy (ticks)
system.membus.reqLayer2.utilization               0.2                       # Layer utilization (%)
system.membus.respLayer1.occupancy           24920250                       # Layer occupancy (ticks)
system.membus.respLayer1.utilization              0.7                       # Layer utilization (%)
system.membus.power_state.pwrStateResidencyTicks::UNDEFINED   3639727000                       # Cumulative time (in ticks) in various power states
system.tol2bus.trans_dist::ReadResp             90171                       # Transaction distribution
system.tol2bus.trans_dist::WritebackDirty        90765                       # Transaction distribution
system.tol2bus.trans_dist::WritebackClean          844                       # Transaction distribution
system.tol2bus.trans_dist::CleanEvict            3285                       # Transaction distribution
system.tol2bus.trans_dist::ReadExReq             6696                       # Transaction distribution
system.tol2bus.trans_dist::ReadExResp            6696                       # Transaction distribution
system.tol2bus.trans_dist::ReadCleanReq          1869                       # Transaction distribution
system.tol2bus.trans_dist::ReadSharedReq        88303                       # Transaction distribution
system.tol2bus.pkt_count_system.cpu.icache.mem_side_port::system.l2.cpu_side_port         4579                       # Packet count per connected requestor and responder (bytes)
system.tol2bus.pkt_count_system.cpu.dcache.mem_side_port::system.l2.cpu_side_port       283973                       # Packet count per connected requestor and responder (bytes)
system.tol2bus.pkt_count::total                288552                       # Packet count per connected requestor and responder (bytes)
system.tol2bus.pkt_size_system.cpu.icache.mem_side_port::system.l2.cpu_side_port       173440                       # Cumulative packet size per connected requestor and responder (bytes)
system.tol2bus.pkt_size_system.cpu.dcache.mem_side_port::system.l2.cpu_side_port     11888704                       # Cumulative packet size per connected requestor and responder (bytes)
system.tol2bus.pkt_size::total               12062144                       # Cumulative packet size per connected requestor and responder (bytes)
system.tol2bus.snoops                              77                       # Total snoops (count)
system.tol2bus.snoopTraffic                       320                       # Total snoop traffic (bytes)
system.tol2bus.snoop_fanout::samples            96943                       # Request fanout histogram
system.tol2bus.snoop_fanout::mean            0.001733                       # Request fanout histogram
system.tol2bus.snoop_fanout::stdev           0.041593                       # Request fanout histogram
system.tol2bus.snoop_fanout::underflows             0      0.00%      0.00% # Request fanout histogram
system.tol2bus.snoop_fanout::0                  96775     99.83%     99.83% # Request fanout histogram
system.tol2bus.snoop_fanout::1                    168      0.17%    100.00% # Request fanout histogram
system.tol2bus.snoop_fanout::2                      0      0.00%    100.00% # Request fanout histogram
system.tol2bus.snoop_fanout::3                      0      0.00%    100.00% # Request fanout histogram
system.tol2bus.snoop_fanout::4                      0      0.00%    100.00% # Request fanout histogram
system.tol2bus.snoop_fanout::overflows              0      0.00%    100.00% # Request fanout histogram
system.tol2bus.snoop_fanout::min_value              0                       # Request fanout histogram
system.tol2bus.snoop_fanout::max_value              1                       # Request fanout histogram
system.tol2bus.snoop_fanout::total              96943                       # Request fanout histogram
system.tol2bus.reqLayer0.occupancy          187449500                       # Layer occupancy (ticks)
system.tol2bus.reqLayer0.utilization              5.2                       # Layer utilization (%)
system.tol2bus.respLayer1.occupancy         142498999                       # Layer occupancy (ticks)
system.tol2bus.respLayer1.utilization             3.9                       # Layer utilization (%)
system.tol2bus.respLayer0.occupancy           2802998                       # Layer occupancy (ticks)
system.tol2bus.respLayer0.utilization             0.1                       # Layer utilization (%)
system.tol2bus.power_state.pwrStateResidencyTicks::UNDEFINED   3639727000                       # Cumulative time (in ticks) in various power states
system.voltage_domain.voltage                       1                       # Voltage in Volts
system.clk_domain.clock                          1000                       # Clock period in ticks
system.l2.demand_hits::.cpu.inst                   71                       # number of demand (read+write) hits
system.l2.demand_hits::.cpu.data                92088                       # number of demand (read+write) hits
system.l2.demand_hits::total                    92159                       # number of demand (read+write) hits
system.l2.overall_hits::.cpu.inst                  71                       # number of overall hits
system.l2.overall_hits::.cpu.data               92088                       # number of overall hits
system.l2.overall_hits::total                   92159                       # number of overall hits
system.l2.demand_misses::.cpu.inst               1796                       # number of demand (read+write) misses
system.l2.demand_misses::.cpu.data               2911                       # number of demand (read+write) misses
system.l2.demand_misses::total                   4707                       # number of demand (read+write) misses
system.l2.overall_misses::.cpu.inst              1796                       # number of overall misses
system.l2.overall_misses::.cpu.data              2911                       # number of overall misses
system.l2.overall_misses::total                  4707                       # number of overall misses
system.l2.demand_miss_latency::.cpu.inst    140508500                       # number of demand (read+write) miss cycles
system.l2.demand_miss_latency::.cpu.data    222598000                       # number of demand (read+write) miss cycles
system.l2.demand_miss_latency::total        363106500                       # number of demand (read+write) miss cycles
system.l2.overall_miss_latency::.cpu.inst    140508500                       # number of overall miss cycles
system.l2.overall_miss_latency::.cpu.data    222598000                       # number of overall miss cycles
system.l2.overall_miss_latency::total       363106500                       # number of overall miss cycles
system.l2.demand_accesses::.cpu.inst             1867                       # number of demand (read+write) accesses
system.l2.demand_accesses::.cpu.data            94999                       # number of demand (read+write) accesses
system.l2.demand_accesses::total                96866                       # number of demand (read+write) accesses
system.l2.overall_accesses::.cpu.inst            1867                       # number of overall (read+write) accesses
system.l2.overall_accesses::.cpu.data           94999                       # number of overall (read+write) accesses
system.l2.overall_accesses::total               96866                       # number of overall (read+write) accesses
system.l2.demand_miss_rate::.cpu.inst        0.961971                       # miss rate for demand accesses
system.l2.demand_miss_rate::.cpu.data        0.030642                       # miss rate for demand accesses
system.l2.demand_miss_rate::total            0.048593                       # miss rate for demand accesses
system.l2.overall_miss_rate::.cpu.inst       0.961971                       # miss rate for overall accesses
system.l2.overall_miss_rate::.cpu.data       0.030642                       # miss rate for overall accesses
system.l2.overall_miss_rate::total           0.048593                       # miss rate for overall accesses
system.l2.demand_avg_miss_latency::.cpu.inst 78234.131403                       # average overall miss latency
system.l2.demand_avg_miss_latency::.cpu.data 76467.880453                       # average overall miss latency
system.l2.demand_avg_miss_latency::total 77141.810070                       # average overall miss latency
system.l2.overall_avg_miss_latency::.cpu.inst 78234.131403                       # average overall miss latency
system.l2.overall_avg_miss_latency::.cpu.data 76467.880453                       # average overall miss latency
system.l2.overall_avg_miss_latency::total 77141.810070                       # average overall miss latency
system.l2.blocked_cycles::no_mshrs                  0                       # number of cycles access was blocked
system.l2.blocked_cycles::no_targets                0                       # number of cycles access was blocked
system.l2.blocked::no_mshrs                         0                       # number of cycles access was blocked
system.l2.blocked::no_targets                       0                       # number of cycles access was blocked
system.l2.avg_blocked_cycles::no_mshrs            nan                       # average number of cycles each access was blocked
system.l2.avg_blocked_cycles::no_targets          nan                       # average number of cycles each access was blocked
system.l2.writebacks::.writebacks                   3                       # number of writebacks
system.l2.writebacks::total                         3                       # number of writebacks
system.l2.demand_mshr_hits::.cpu.data               1                       # number of demand (read+write) MSHR hits
system.l2.demand_mshr_hits::total                   1                       # number of demand (read+write) MSHR hits
system.l2.overall_mshr_hits::.cpu.data              1                       # number of overall MSHR hits
system.l2.overall_mshr_hits::total                  1                       # number of overall MSHR hits
system.l2.demand_mshr_misses::.cpu.inst          1796                       # number of demand (read+write) MSHR misses
system.l2.demand_mshr_misses::.cpu.data          2910                       # number of demand (read+write) MSHR misses
system.l2.demand_mshr_misses::total              4706                       # number of demand (read+write) MSHR misses
system.l2.overall_mshr_misses::.cpu.inst         1796                       # number of overall MSHR misses
system.l2.overall_mshr_misses::.cpu.data         2910                       # number of overall MSHR misses
system.l2.overall_mshr_misses::total             4706                       # number of overall MSHR misses
system.l2.demand_mshr_miss_latency::.cpu.inst    122558500                       # number of demand (read+write) MSHR miss cycles
system.l2.demand_mshr_miss_latency::.cpu.data    193438500                       # number of demand (read+write) MSHR miss cycles
system.l2.demand_mshr_miss_latency::total    315997000                       # number of demand (read+write) MSHR miss cycles
system.l2.overall_mshr_miss_latency::.cpu.inst    122558500                       # number of overall MSHR miss cycles
system.l2.overall_mshr_miss_latency::.cpu.data    193438500                       # number of overall MSHR miss cycles
system.l2.overall_mshr_miss_latency::total    315997000                       # number of overall MSHR miss cycles
system.l2.demand_mshr_miss_rate::.cpu.inst     0.961971                       # mshr miss rate for demand accesses
system.l2.demand_mshr_miss_rate::.cpu.data     0.030632                       # mshr miss rate for demand accesses
system.l2.demand_mshr_miss_rate::total       0.048583                       # mshr miss rate for demand accesses
system.l2.overall_mshr_miss_rate::.cpu.inst     0.961971                       # mshr miss rate for overall accesses
system.l2.overall_mshr_miss_rate::.cpu.data     0.030632                       # mshr miss rate for overall accesses
system.l2.overall_mshr_miss_rate::total      0.048583                       # mshr miss rate for overall accesses
system.l2.demand_avg_mshr_miss_latency::.cpu.inst 68239.699332                       # average overall mshr miss latency
system.l2.demand_avg_mshr_miss_latency::.cpu.data 66473.711340                       # average overall mshr miss latency
system.l2.demand_avg_mshr_miss_latency::total 67147.683808                       # average overall mshr miss latency
system.l2.overall_avg_mshr_miss_latency::.cpu.inst 68239.699332                       # average overall mshr miss latency
system.l2.overall_avg_mshr_miss_latency::.cpu.data 66473.711340                       # average overall mshr miss latency
system.l2.overall_avg_mshr_miss_latency::total 67147.683808                       # average overall mshr miss latency
system.l2.replacements                             75                       # number of replacements
system.l2.WritebackDirty_hits::.writebacks        90762                       # number of WritebackDirty hits
system.l2.WritebackDirty_hits::total            90762                       # number of WritebackDirty hits
system.l2.WritebackDirty_accesses::.writebacks        90762                       # number of WritebackDirty accesses(hits+misses)
system.l2.WritebackDirty_accesses::total        90762                       # number of WritebackDirty accesses(hits+misses)
system.l2.WritebackClean_hits::.writebacks          844                       # number of WritebackClean hits
system.l2.WritebackClean_hits::total              844                       # number of WritebackClean hits
system.l2.WritebackClean_accesses::.writebacks          844                       # number of WritebackClean accesses(hits+misses)
system.l2.WritebackClean_accesses::total          844                       # number of WritebackClean accesses(hits+misses)
system.l2.ReadExReq_hits::.cpu.data              4040                       # number of ReadExReq hits
system.l2.ReadExReq_hits::total                  4040                       # number of ReadExReq hits
system.l2.ReadExReq_misses::.cpu.data            2656                       # number of ReadExReq misses
system.l2.ReadExReq_misses::total                2656                       # number of ReadExReq misses
system.l2.ReadExReq_miss_latency::.cpu.data    199533000                       # number of ReadExReq miss cycles
system.l2.ReadExReq_miss_latency::total     199533000                       # number of ReadExReq miss cycles
system.l2.ReadExReq_accesses::.cpu.data          6696                       # number of ReadExReq accesses(hits+misses)
system.l2.ReadExReq_accesses::total              6696                       # number of ReadExReq accesses(hits+misses)
system.l2.ReadExReq_miss_rate::.cpu.data     0.396655                       # miss rate for ReadExReq accesses
system.l2.ReadExReq_miss_rate::total         0.396655                       # miss rate for ReadExReq accesses
system.l2.ReadExReq_avg_miss_latency::.cpu.data 75125.376506                       # average ReadExReq miss latency
system.l2.ReadExReq_avg_miss_latency::total 75125.376506                       # average ReadExReq miss latency
system.l2.ReadExReq_mshr_misses::.cpu.data         2656                       # number of ReadExReq MSHR misses
system.l2.ReadExReq_mshr_misses::total           2656                       # number of ReadExReq MSHR misses
system.l2.ReadExReq_mshr_miss_latency::.cpu.data    172973000                       # number of ReadExReq MSHR miss cycles
system.l2.ReadExReq_mshr_miss_latency::total    172973000                       # number of ReadExReq MSHR miss cycles
system.l2.ReadExReq_mshr_miss_rate::.cpu.data     0.396655                       # mshr miss rate for ReadExReq accesses
system.l2.ReadExReq_mshr_miss_rate::total     0.396655                       # mshr miss rate for ReadExReq accesses
system.l2.ReadExReq_avg_mshr_miss_latency::.cpu.data 65125.376506                       # average ReadExReq mshr miss latency
system.l2.ReadExReq_avg_mshr_miss_latency::total 65125.376506                       # average ReadExReq mshr miss latency
system.l2.ReadCleanReq_hits::.cpu.inst             71                       # number of ReadCleanReq hits
system.l2.ReadCleanReq_hits::total                 71                       # number of ReadCleanReq hits
system.l2.ReadCleanReq_misses::.cpu.inst         1796                       # number of ReadCleanReq misses
system.l2.ReadCleanReq_misses::total             1796                       # number of ReadCleanReq misses
system.l2.ReadCleanReq_miss_latency::.cpu.inst    140508500                       # number of ReadCleanReq miss cycles
system.l2.ReadCleanReq_miss_latency::total    140508500                       # number of ReadCleanReq miss cycles
system.l2.ReadCleanReq_accesses::.cpu.inst         1867                       # number of ReadCleanReq accesses(hits+misses)
system.l2.ReadCleanReq_accesses::total           1867                       # number of ReadCleanReq accesses(hits+misses)
system.l2.ReadCleanReq_miss_rate::.cpu.inst     0.961971                       # miss rate for ReadCleanReq accesses
system.l2.ReadCleanReq_miss_rate::total      0.961971                       # miss rate for ReadCleanReq accesses
system.l2.ReadCleanReq_avg_miss_latency::.cpu.inst 78234.131403                       # average ReadCleanReq miss latency
system.l2.ReadCleanReq_avg_miss_latency::total 78234.131403                       # average ReadCleanReq miss latency
system.l2.ReadCleanReq_mshr_misses::.cpu.inst         1796                       # number of ReadCleanReq MSHR misses
system.l2.ReadCleanReq_mshr_misses::total         1796                       # number of ReadCleanReq MSHR misses
system.l2.ReadCleanReq_mshr_miss_latency::.cpu.inst    122558500                       # number of ReadCleanReq MSHR miss cycles
system.l2.ReadCleanReq_mshr_miss_latency::total    122558500                       # number of ReadCleanReq MSHR miss cycles
system.l2.ReadCleanReq_mshr_miss_rate::.cpu.inst     0.961971                       # mshr miss rate for ReadCleanReq accesses
system.l2.ReadCleanReq_mshr_miss_rate::total     0.961971                       # mshr miss rate for ReadCleanReq accesses
system.l2.ReadCleanReq_avg_mshr_miss_latency::.cpu.inst 68239.699332                       # average ReadCleanReq mshr miss latency
system.l2.ReadCleanReq_avg_mshr_miss_latency::total 68239.699332                       # average ReadCleanReq mshr miss latency
system.l2.ReadSharedReq_hits::.cpu.data         88048                       # number of ReadSharedReq hits
system.l2.ReadSharedReq_hits::total             88048                       # number of ReadSharedReq hits
system.l2.ReadSharedReq_misses::.cpu.data          255                       # number of ReadSharedReq misses
system.l2.ReadSharedReq_misses::total             255                       # number of ReadSharedReq misses
system.l2.ReadSharedReq_miss_latency::.cpu.data     23065000                       # number of ReadSharedReq miss cycles
system.l2.ReadSharedReq_miss_latency::total     23065000                       # number of ReadSharedReq miss cycles
system.l2.ReadSharedReq_accesses::.cpu.data        88303                       # number of ReadSharedReq accesses(hits+misses)
system.l2.ReadSharedReq_accesses::total         88303                       # number of ReadSharedReq accesses(hits+misses)
system.l2.ReadSharedReq_miss_rate::.cpu.data     0.002888                       # miss rate for ReadSharedReq accesses
system.l2.ReadSharedReq_miss_rate::total     0.002888                       # miss rate for ReadSharedReq accesses
system.l2.ReadSharedReq_avg_miss_latency::.cpu.data 90450.980392                       # average ReadSharedReq miss latency
system.l2.ReadSharedReq_avg_miss_latency::total 90450.980392                       # average ReadSharedReq miss latency
system.l2.ReadSharedReq_mshr_hits::.cpu.data            1                       # number of ReadSharedReq MSHR hits
system.l2.ReadSharedReq_mshr_hits::total            1                       # number of ReadSharedReq MSHR hits
system.l2.ReadSharedReq_mshr_misses::.cpu.data          254                       # number of ReadSharedReq MSHR misses
system.l2.ReadSharedReq_mshr_misses::total          254                       # number of ReadSharedReq MSHR misses
system.l2.ReadSharedReq_mshr_miss_latency::.cpu.data     20465500                       # number of ReadSharedReq MSHR miss cycles
system.l2.ReadSharedReq_mshr_miss_latency::total     20465500                       # number of ReadSharedReq MSHR miss cycles
system.l2.ReadSharedReq_mshr_miss_rate::.cpu.data     0.002876                       # mshr miss rate for ReadSharedReq accesses
system.l2.ReadSharedReq_mshr_miss_rate::total     0.002876                       # mshr miss rate for ReadSharedReq accesses
system.l2.ReadSharedReq_avg_mshr_miss_latency::.cpu.data 80572.834646                       # average ReadSharedReq mshr miss latency
system.l2.ReadSharedReq_avg_mshr_miss_latency::total 80572.834646                       # average ReadSharedReq mshr miss latency
system.l2.power_state.pwrStateResidencyTicks::UNDEFINED   3639727000                       # Cumulative time (in ticks) in various power states
system.l2.tags.tagsinuse                  4074.955886                       # Cycle average of tags in use
system.l2.tags.total_refs                      191579                       # Total number of references to valid blocks.
system.l2.tags.sampled_refs                      4718                       # Sample count of references to valid blocks.
system.l2.tags.avg_refs                     40.605977                       # Average number of references to valid blocks.
system.l2.tags.warmup_cycle                     77000                       # Cycle when the warmup percentage was hit.
system.l2.tags.occ_blocks::.writebacks       5.232986                       # Average occupied blocks per requestor
system.l2.tags.occ_blocks::.cpu.inst      1561.712154                       # Average occupied blocks per requestor
system.l2.tags.occ_blocks::.cpu.data      2508.010746                       # Average occupied blocks per requestor
system.l2.tags.occ_percent::.writebacks      0.000639                       # Average percentage of cache occupancy
system.l2.tags.occ_percent::.cpu.inst        0.190639                       # Average percentage of cache occupancy
system.l2.tags.occ_percent::.cpu.data        0.306154                       # Average percentage of cache occupancy
system.l2.tags.occ_percent::total            0.497431                       # Average percentage of cache occupancy
system.l2.tags.occ_task_id_blocks::1024          4643                       # Occupied blocks per task id
system.l2.tags.age_task_id_blocks_1024::0           90                       # Occupied blocks per task id
system.l2.tags.age_task_id_blocks_1024::3         4553                       # Occupied blocks per task id
system.l2.tags.occ_task_id_percent::1024     0.566772                       # Percentage of cache occupancy per task id
system.l2.tags.tag_accesses                    771042                       # Number of tag accesses
system.l2.tags.data_accesses                   771042                       # Number of data accesses
system.l2.tags.power_state.pwrStateResidencyTicks::UNDEFINED   3639727000                       # Cumulative time (in ticks) in various power states
system.cpu_voltage_domain.voltage                   1                       # Voltage in Volts
system.mem_ctrls.avgPriority_.writebacks::samples         3.00                       # Average QoS priority value for accepted requests
system.mem_ctrls.avgPriority_.cpu.inst::samples      1795.00                       # Average QoS priority value for accepted requests
system.mem_ctrls.avgPriority_.cpu.data::samples      2909.00                       # Average QoS priority value for accepted requests
system.mem_ctrls.priorityMinLatency      0.000000018750                       # per QoS priority minimum request to response latency (s)
system.mem_ctrls.priorityMaxLatency      0.000000578500                       # per QoS priority maximum request to response latency (s)
system.mem_ctrls.numReadWriteTurnArounds            0                       # Number of turnarounds from READ to WRITE
system.mem_ctrls.numWriteReadTurnArounds            0                       # Number of turnarounds from WRITE to READ
system.mem_ctrls.numStayReadState               10290                       # Number of times bus staying in READ state
system.mem_ctrls.numStayWriteState                  0                       # Number of times bus staying in WRITE state
system.mem_ctrls.readReqs                        4705                       # Number of read requests accepted
system.mem_ctrls.writeReqs                          3                       # Number of write requests accepted
system.mem_ctrls.readBursts                      4705                       # Number of controller read bursts, including those serviced by the write queue
system.mem_ctrls.writeBursts                        3                       # Number of controller write bursts, including those merged in the write queue
system.mem_ctrls.servicedByWrQ                      1                       # Number of controller read bursts serviced by the write queue
system.mem_ctrls.mergedWrBursts                     0                       # Number of controller write bursts merged with an existing one
system.mem_ctrls.neitherReadNorWriteReqs            0                       # Number of requests that are neither read nor write
system.mem_ctrls.avgRdQLen                       1.06                       # Average read queue length when enqueuing
system.mem_ctrls.avgWrQLen                       1.44                       # Average write queue length when enqueuing
system.mem_ctrls.numRdRetry                         0                       # Number of times read queue was full causing retry
system.mem_ctrls.numWrRetry                         0                       # Number of times write queue was full causing retry
system.mem_ctrls.readPktSize::0                     0                       # Read request sizes (log2)
system.mem_ctrls.readPktSize::1                     0                       # Read request sizes (log2)
system.mem_ctrls.readPktSize::2                     0                       # Read request sizes (log2)
system.mem_ctrls.readPktSize::3                     0                       # Read request sizes (log2)
system.mem_ctrls.readPktSize::4                     0                       # Read request sizes (log2)
system.mem_ctrls.readPktSize::5                     0                       # Read request sizes (log2)
system.mem_ctrls.readPktSize::6                  4705                       # Read request sizes (log2)
system.mem_ctrls.writePktSize::0                    0                       # Write request sizes (log2)
system.mem_ctrls.writePktSize::1                    0                       # Write request sizes (log2)
system.mem_ctrls.writePktSize::2                    0                       # Write request sizes (log2)
system.mem_ctrls.writePktSize::3                    0                       # Write request sizes (log2)
system.mem_ctrls.writePktSize::4                    0                       # Write request sizes (log2)
system.mem_ctrls.writePktSize::5                    0                       # Write request sizes (log2)
system.mem_ctrls.writePktSize::6                    3                       # Write request sizes (log2)
system.mem_ctrls.rdQLenPdf::0                    3930                       # What read queue length does an incoming req see
system.mem_ctrls.rdQLenPdf::1                     601                       # What read queue length does an incoming req see
system.mem_ctrls.rdQLenPdf::2                     142                       # What read queue length does an incoming req see
system.mem_ctrls.rdQLenPdf::3                      25                       # What read queue length does an incoming req see
system.mem_ctrls.rdQLenPdf::4                       6                       # What read queue length does an incoming req see
system.mem_ctrls.rdQLenPdf::5                       0                       # What read queue length does an incoming req see
system.mem_ctrls.rdQLenPdf::6                       0                       # What read queue length does an incoming req see
system.mem_ctrls.rdQLenPdf::7                       0                       # What read queue length does an incoming req see
system.mem_ctrls.rdQLenPdf::8                       0                       # What read queue length does an incoming req see
system.mem_ctrls.rdQLenPdf::9                       0                       # What read queue length does an incoming req see
system.mem_ctrls.rdQLenPdf::10                      0                       # What read queue length does an incoming req see
system.mem_ctrls.rdQLenPdf::11                      0                       # What read queue length does an incoming req see
system.mem_ctrls.rdQLenPdf::12                      0                       # What read queue length does an incoming req see
system.mem_ctrls.rdQLenPdf::13                      0                       # What read queue length does an incoming req see
system.mem_ctrls.rdQLenPdf::14                      0                       # What read queue length does an incoming req see
system.mem_ctrls.rdQLenPdf::15                      0                       # What read queue length does an incoming req see
system.mem_ctrls.rdQLenPdf::16                      0                       # What read queue length does an incoming req see
system.mem_ctrls.rdQLenPdf::17                      0                       # What read queue length does an incoming req see
system.mem_ctrls.rdQLenPdf::18                      0                       # What read queue length does an incoming req see
system.mem_ctrls.rdQLenPdf::19                      0                       # What read queue length does an incoming req see
system.mem_ctrls.rdQLenPdf::20                      0                       # What read queue length does an incoming req see
system.mem_ctrls.rdQLenPdf::21                      0                       # What read queue length does an incoming req see
system.mem_ctrls.rdQLenPdf::22                      0                       # What read queue length does an incoming req see
system.mem_ctrls.rdQLenPdf::23                      0                       # What read queue length does an incoming req see
system.mem_ctrls.rdQLenPdf::24                      0                       # What read queue length does an incoming req see
system.mem_ctrls.rdQLenPdf::25                      0                       # What read queue length does an incoming req see
system.mem_ctrls.rdQLenPdf::26                      0                       # What read queue length does an incoming req see
system.mem_ctrls.rdQLenPdf::27                      0                       # What read queue length does an incoming req see
system.mem_ctrls.rdQLenPdf::28                      0                       # What read queue length does an incoming req see
system.mem_ctrls.rdQLenPdf::29                      0                       # What read queue length does an incoming req see
system.mem_ctrls.rdQLenPdf::30                      0                       # What read queue length does an incoming req see
system.mem_ctrls.rdQLenPdf::31                      0                       # What read queue length does an incoming req see
system.mem_ctrls.wrQLenPdf::0                       1                       # What write queue length does an incoming req see
system.mem_ctrls.wrQLenPdf::1                       1                       # What write queue length does an incoming req see
system.mem_ctrls.wrQLenPdf::2                       1                       # What write queue length does an incoming req see
system.mem_ctrls.wrQLenPdf::3                       0                       # What write queue length does an incoming req see
system.mem_ctrls.wrQLenPdf::4                       0                       # What write queue length does an incoming req see
system.mem_ctrls.wrQLenPdf::5                       0                       # What write queue length does an incoming req see
system.mem_ctrls.wrQLenPdf::6                       0                       # What write queue length does an incoming req see
system.mem_ctrls.wrQLenPdf::7                       0                       # What write queue length does an incoming req see
system.mem_ctrls.wrQLenPdf::8                       0                       # What write queue length does an incoming req see
system.mem_ctrls.wrQLenPdf::9                       0                       # What write queue length does an incoming req see
system.mem_ctrls.wrQLenPdf::10                      0                       # What write queue length does an incoming req see
system.mem_ctrls.wrQLenPdf::11                      0                       # What write queue length does an incoming req see
system.mem_ctrls.wrQLenPdf::12                      0                       # What write queue length does an incoming req see
system.mem_ctrls.wrQLenPdf::13                      0                       # What write queue length does an incoming req see
system.mem_ctrls.wrQLenPdf::14                      0                       # What write queue length does an incoming req see
system.mem_ctrls.wrQLenPdf::15                      0                       # What write queue length does an incoming req see
system.mem_ctrls.wrQLenPdf::16                      0                       # What write queue length does an incoming req see
system.mem_ctrls.wrQLenPdf::17                      0                       # What write queue length does an incoming req see
system.mem_ctrls.wrQLenPdf::18                      0                       # What write queue length does an incoming req see
system.mem_ctrls.wrQLenPdf::19                      0                       # What write queue length does an incoming req see
system.mem_ctrls.wrQLenPdf::20                      0                       # What write queue length does an incoming req see
system.mem_ctrls.wrQLenPdf::21                      0                       # What write queue length does an incoming req see
system.mem_ctrls.wrQLenPdf::22                      0                       # What write queue length does an incoming req see
system.mem_ctrls.wrQLenPdf::23                      0                       # What write queue length does an incoming req see
system.mem_ctrls.wrQLenPdf::24                      0                       # What write queue length does an incoming req see
system.mem_ctrls.wrQLenPdf::25                      0                       # What write queue length does an incoming req see
system.mem_ctrls.wrQLenPdf::26                      0                       # What write queue length does an incoming req see
system.mem_ctrls.wrQLenPdf::27                      0                       # What write queue length does an incoming req see
system.mem_ctrls.wrQLenPdf::28                      0                       # What write queue length does an incoming req see
system.mem_ctrls.wrQLenPdf::29                      0                       # What write queue length does an incoming req see
system.mem_ctrls.wrQLenPdf::30                      0                       # What write queue length does an incoming req see
system.mem_ctrls.wrQLenPdf::31                      0                       # What write queue length does an incoming req see
system.mem_ctrls.wrQLenPdf::32                      0                       # What write queue length does an incoming req see
system.mem_ctrls.wrQLenPdf::33                      0                       # What write queue length does an incoming req see
system.mem_ctrls.wrQLenPdf::34                      0                       # What write queue length does an incoming req see
system.mem_ctrls.wrQLenPdf::35                      0                       # What write queue length does an incoming req see
system.mem_ctrls.wrQLenPdf::36                      0                       # What write queue length does an incoming req see
system.mem_ctrls.wrQLenPdf::37                      0                       # What write queue length does an incoming req see
system.mem_ctrls.wrQLenPdf::38                      0                       # What write queue length does an incoming req see
system.mem_ctrls.wrQLenPdf::39                      0                       # What write queue length does an incoming req see
system.mem_ctrls.wrQLenPdf::40                      0                       # What write queue length does an incoming req see
system.mem_ctrls.wrQLenPdf::41                      0                       # What write queue length does an incoming req see
system.mem_ctrls.wrQLenPdf::42                      0                       # What write queue length does an incoming req see
system.mem_ctrls.wrQLenPdf::43                      0                       # What write queue length does an incoming req see
system.mem_ctrls.wrQLenPdf::44                      0                       # What write queue length does an incoming req see
system.mem_ctrls.wrQLenPdf::45                      0                       # What write queue length does an incoming req see
system.mem_ctrls.wrQLenPdf::46                      0                       # What write queue length does an incoming req see
system.mem_ctrls.wrQLenPdf::47                      0                       # What write queue length does an incoming req see
system.mem_ctrls.wrQLenPdf::48                      0                       # What write queue length does an incoming req see
system.mem_ctrls.wrQLenPdf::49                      0                       # What write queue length does an incoming req see
system.mem_ctrls.wrQLenPdf::50                      0                       # What write queue length does an incoming req see
system.mem_ctrls.wrQLenPdf::51                      0                       # What write queue length does an incoming req see
system.mem_ctrls.wrQLenPdf::52                      0                       # What write queue length does an incoming req see
system.mem_ctrls.wrQLenPdf::53                      0                       # What write queue length does an incoming req see
system.mem_ctrls.wrQLenPdf::54                      0                       # What write queue length does an incoming req see
system.mem_ctrls.wrQLenPdf::55                      0                       # What write queue length does an incoming req see
system.mem_ctrls.wrQLenPdf::56                      0                       # What write queue length does an incoming req see
system.mem_ctrls.wrQLenPdf::57                      0                       # What write queue length does an incoming req see
system.mem_ctrls.wrQLenPdf::58                      0                       # What write queue length does an incoming req see
system.mem_ctrls.wrQLenPdf::59                      0                       # What write queue length does an incoming req see
system.mem_ctrls.wrQLenPdf::60                      0                       # What write queue length does an incoming req see
system.mem_ctrls.wrQLenPdf::61                      0                       # What write queue length does an incoming req see
system.mem_ctrls.wrQLenPdf::62                      0                       # What write queue length does an incoming req see
system.mem_ctrls.wrQLenPdf::63                      0                       # What write queue length does an incoming req see
system.mem_ctrls.bytesReadWrQ                      64                       # Total number of bytes read from write queue
system.mem_ctrls.bytesReadSys                  301120                       # Total read bytes from the system interface side
system.mem_ctrls.bytesWrittenSys                  192                       # Total written bytes from the system interface side
system.mem_ctrls.avgRdBWSys                     82.73                       # Average system read bandwidth in MiByte/s
system.mem_ctrls.avgWrBWSys                      0.05                       # Average system write bandwidth in MiByte/s
system.mem_ctrls.totGap                    3639638000                       # Total gap between requests
system.mem_ctrls.avgGap                     773075.19                       # Average gap between requests
system.mem_ctrls.requestorReadBytes::.cpu.inst       114880                       # Per-requestor bytes read from memory
system.mem_ctrls.requestorReadBytes::.cpu.data       186176                       # Per-requestor bytes read from memory
system.mem_ctrls.requestorReadRate::.cpu.inst 31562806.770947381854                       # Per-requestor bytes read from memory rate (Bytes/sec)
system.mem_ctrls.requestorReadRate::.cpu.data 51151089.078933663666                       # Per-requestor bytes read from memory rate (Bytes/sec)
system.mem_ctrls.requestorReadAccesses::.cpu.inst         1795                       # Per-requestor read serviced memory accesses
system.mem_ctrls.requestorReadAccesses::.cpu.data         2910                       # Per-requestor read serviced memory accesses
system.mem_ctrls.requestorWriteAccesses::.writebacks            3                       # Per-requestor write serviced memory accesses
system.mem_ctrls.requestorReadTotalLat::.cpu.inst     48769250                       # Per-requestor read total memory access latency
system.mem_ctrls.requestorReadTotalLat::.cpu.data     74101750                       # Per-requestor read total memory access latency
system.mem_ctrls.requestorReadAvgLat::.cpu.inst     27169.50                       # Per-requestor read average memory access latency
system.mem_ctrls.requestorReadAvgLat::.cpu.data     25464.52                       # Per-requestor read average memory access latency
system.mem_ctrls.requestorWriteAvgLat::.writebacks         0.00                       # Per-requestor write average memory access latency
system.mem_ctrls.dram.bytes_read::.cpu.inst       114880                       # Number of bytes read from this memory
system.mem_ctrls.dram.bytes_read::.cpu.data       186240                       # Number of bytes read from this memory
system.mem_ctrls.dram.bytes_read::total        301120                       # Number of bytes read from this memory
system.mem_ctrls.dram.bytes_inst_read::.cpu.inst       114880                       # Number of instructions bytes read from this memory
system.mem_ctrls.dram.bytes_inst_read::total       114880                       # Number of instructions bytes read from this memory
system.mem_ctrls.dram.bytes_written::.writebacks          192                       # Number of bytes written to this memory
system.mem_ctrls.dram.bytes_written::total          192                       # Number of bytes written to this memory
system.mem_ctrls.dram.num_reads::.cpu.inst         1795                       # Number of read requests responded to by this memory
system.mem_ctrls.dram.num_reads::.cpu.data         2910                       # Number of read requests responded to by this memory
system.mem_ctrls.dram.num_reads::total           4705                       # Number of read requests responded to by this memory
system.mem_ctrls.dram.num_writes::.writebacks            3                       # Number of write requests responded to by this memory
system.mem_ctrls.dram.num_writes::total             3                       # Number of write requests responded to by this memory
system.mem_ctrls.dram.bw_read::.cpu.inst     31562807                       # Total read bandwidth from this memory (bytes/s)
system.mem_ctrls.dram.bw_read::.cpu.data     51168673                       # Total read bandwidth from this memory (bytes/s)
system.mem_ctrls.dram.bw_read::total         82731480                       # Total read bandwidth from this memory (bytes/s)
system.mem_ctrls.dram.bw_inst_read::.cpu.inst     31562807                       # Instruction read bandwidth from this memory (bytes/s)
system.mem_ctrls.dram.bw_inst_read::total     31562807                       # Instruction read bandwidth from this memory (bytes/s)
system.mem_ctrls.dram.bw_write::.writebacks        52751                       # Write bandwidth from this memory (bytes/s)
system.mem_ctrls.dram.bw_write::total           52751                       # Write bandwidth from this memory (bytes/s)
system.mem_ctrls.dram.bw_total::.writebacks        52751                       # Total bandwidth to/from this memory (bytes/s)
system.mem_ctrls.dram.bw_total::.cpu.inst     31562807                       # Total bandwidth to/from this memory (bytes/s)
system.mem_ctrls.dram.bw_total::.cpu.data     51168673                       # Total bandwidth to/from this memory (bytes/s)
system.mem_ctrls.dram.bw_total::total        82784231                       # Total bandwidth to/from this memory (bytes/s)
system.mem_ctrls.dram.readBursts                 4704                       # Number of DRAM read bursts
system.mem_ctrls.dram.writeBursts                   0                       # Number of DRAM write bursts
system.mem_ctrls.dram.perBankRdBursts::0          325                       # Per bank write bursts
system.mem_ctrls.dram.perBankRdBursts::1          375                       # Per bank write bursts
system.mem_ctrls.dram.perBankRdBursts::2          435                       # Per bank write bursts
system.mem_ctrls.dram.perBankRdBursts::3          423                       # Per bank write bursts
system.mem_ctrls.dram.perBankRdBursts::4          348                       # Per bank write bursts
system.mem_ctrls.dram.perBankRdBursts::5          389                       # Per bank write bursts
system.mem_ctrls.dram.perBankRdBursts::6          254                       # Per bank write bursts
system.mem_ctrls.dram.perBankRdBursts::7          173                       # Per bank write bursts
system.mem_ctrls.dram.perBankRdBursts::8          237                       # Per bank write bursts
system.mem_ctrls.dram.perBankRdBursts::9          212                       # Per bank write bursts
system.mem_ctrls.dram.perBankRdBursts::10          304                       # Per bank write bursts
system.mem_ctrls.dram.perBankRdBursts::11          209                       # Per bank write bursts
system.mem_ctrls.dram.perBankRdBursts::12          162                       # Per bank write bursts
system.mem_ctrls.dram.perBankRdBursts::13          270                       # Per bank write bursts
system.mem_ctrls.dram.perBankRdBursts::14          290                       # Per bank write bursts
system.mem_ctrls.dram.perBankRdBursts::15          298                       # Per bank write bursts
system.mem_ctrls.dram.perBankWrBursts::0            0                       # Per bank write bursts
system.mem_ctrls.dram.perBankWrBursts::1            0                       # Per bank write bursts
system.mem_ctrls.dram.perBankWrBursts::2            0                       # Per bank write bursts
system.mem_ctrls.dram.perBankWrBursts::3            0                       # Per bank write bursts
system.mem_ctrls.dram.perBankWrBursts::4            0                       # Per bank write bursts
system.mem_ctrls.dram.perBankWrBursts::5            0                       # Per bank write bursts
system.mem_ctrls.dram.perBankWrBursts::6            0                       # Per bank write bursts
system.mem_ctrls.dram.perBankWrBursts::7            0                       # Per bank write bursts
system.mem_ctrls.dram.perBankWrBursts::8            0                       # Per bank write bursts
system.mem_ctrls.dram.perBankWrBursts::9            0                       # Per bank write bursts
system.mem_ctrls.dram.perBankWrBursts::10            0                       # Per bank write bursts
system.mem_ctrls.dram.perBankWrBursts::11            0                       # Per bank write bursts
system.mem_ctrls.dram.perBankWrBursts::12            0                       # Per bank write bursts
system.mem_ctrls.dram.perBankWrBursts::13            0                       # Per bank write bursts
system.mem_ctrls.dram.perBankWrBursts::14            0                       # Per bank write bursts
system.mem_ctrls.dram.perBankWrBursts::15            0                       # Per bank write bursts
system.mem_ctrls.dram.totQLat                34671000                       # Total ticks spent queuing
system.mem_ctrls.dram.totBusLat              23520000                       # Total ticks spent in databus transfers
system.mem_ctrls.dram.totMemAccLat          122871000                       # Total ticks spent from burst creation until serviced by the DRAM
system.mem_ctrls.dram.avgQLat                 7370.54                       # Average queueing delay per DRAM burst
system.mem_ctrls.dram.avgBusLat               5000.00                       # Average bus latency per DRAM burst
system.mem_ctrls.dram.avgMemAccLat           26120.54                       # Average memory access latency per DRAM burst
system.mem_ctrls.dram.readRowHits                3873                       # Number of row buffer hits during reads
system.mem_ctrls.dram.writeRowHits                  0                       # Number of row buffer hits during writes
system.mem_ctrls.dram.readRowHitRate            82.33                       # Row buffer hit rate for reads
system.mem_ctrls.dram.writeRowHitRate             nan                       # Row buffer hit rate for writes
system.mem_ctrls.dram.bytesPerActivate::samples          821                       # Bytes accessed per row activation
system.mem_ctrls.dram.bytesPerActivate::mean   364.823386                       # Bytes accessed per row activation
system.mem_ctrls.dram.bytesPerActivate::gmean   232.688477                       # Bytes accessed per row activation
system.mem_ctrls.dram.bytesPerActivate::stdev   320.563717                       # Bytes accessed per row activation
system.mem_ctrls.dram.bytesPerActivate::0-127          222     27.04%     27.04% # Bytes accessed per row activation
system.mem_ctrls.dram.bytesPerActivate::128-255          171     20.83%     47.87% # Bytes accessed per row activation
system.mem_ctrls.dram.bytesPerActivate::256-383           92     11.21%     59.07% # Bytes accessed per row activation
system.mem_ctrls.dram.bytesPerActivate::384-511           84     10.23%     69.31% # Bytes accessed per row activation
system.mem_ctrls.dram.bytesPerActivate::512-639           72      8.77%     78.08% # Bytes accessed per row activation
system.mem_ctrls.dram.bytesPerActivate::640-767           43      5.24%     83.31% # Bytes accessed per row activation
system.mem_ctrls.dram.bytesPerActivate::768-895           34      4.14%     87.45% # Bytes accessed per row activation
system.mem_ctrls.dram.bytesPerActivate::896-1023           21      2.56%     90.01% # Bytes accessed per row activation
system.mem_ctrls.dram.bytesPerActivate::1024-1151           82      9.99%    100.00% # Bytes accessed per row activation
system.mem_ctrls.dram.bytesPerActivate::total          821                       # Bytes accessed per row activation
[...]
system.cpu.dcache.SoftPFReq_hits::total          2118                       # number of SoftPFReq hits
system.cpu.dcache.SoftPFReq_misses::.cpu.data          602                       # number of SoftPFReq misses
system.cpu.dcache.SoftPFReq_misses::total          602                       # number of SoftPFReq misses
system.cpu.dcache.SoftPFReq_accesses::.cpu.data         2720                       # number of SoftPFReq accesses(hits+misses)
system.cpu.dcache.SoftPFReq_accesses::total         2720                       # number of SoftPFReq accesses(hits+misses)
system.cpu.dcache.SoftPFReq_miss_rate::.cpu.data     0.221324                       # miss rate for SoftPFReq accesses
system.cpu.dcache.SoftPFReq_miss_rate::total     0.221324                       # miss rate for SoftPFReq accesses
system.cpu.dcache.SoftPFReq_mshr_misses::.cpu.data          416                       # number of SoftPFReq MSHR misses
system.cpu.dcache.SoftPFReq_mshr_misses::total          416                       # number of SoftPFReq MSHR misses
system.cpu.dcache.SoftPFReq_mshr_miss_latency::.cpu.data      5063000                       # number of SoftPFReq MSHR miss cycles
system.cpu.dcache.SoftPFReq_mshr_miss_latency::total      5063000                       # number of SoftPFReq MSHR miss cycles
system.cpu.dcache.SoftPFReq_mshr_miss_rate::.cpu.data     0.152941                       # mshr miss rate for SoftPFReq accesses
system.cpu.dcache.SoftPFReq_mshr_miss_rate::total     0.152941                       # mshr miss rate for SoftPFReq accesses
system.cpu.dcache.SoftPFReq_avg_mshr_miss_latency::.cpu.data 12170.673077                       # average SoftPFReq mshr miss latency
system.cpu.dcache.SoftPFReq_avg_mshr_miss_latency::total 12170.673077                       # average SoftPFReq mshr miss latency
system.cpu.dcache.power_state.pwrStateResidencyTicks::UNDEFINED   3639727000                       # Cumulative time (in ticks) in various power states
system.cpu.dcache.tags.tagsinuse           984.432909                       # Cycle average of tags in use
system.cpu.dcache.tags.total_refs             4094330                       # Total number of references to valid blocks.
system.cpu.dcache.tags.sampled_refs             94999                       # Sample count of references to valid blocks.
system.cpu.dcache.tags.avg_refs             43.098664                       # Average number of references to valid blocks.
system.cpu.dcache.tags.warmup_cycle            176500                       # Cycle when the warmup percentage was hit.
system.cpu.dcache.tags.occ_blocks::.cpu.data   984.432909                       # Average occupied blocks per requestor
system.cpu.dcache.tags.occ_percent::.cpu.data     0.961360                       # Average percentage of cache occupancy
system.cpu.dcache.tags.occ_percent::total     0.961360                       # Average percentage of cache occupancy
system.cpu.dcache.tags.occ_task_id_blocks::1024         1024                       # Occupied blocks per task id
system.cpu.dcache.tags.age_task_id_blocks_1024::0          216                       # Occupied blocks per task id
system.cpu.dcache.tags.age_task_id_blocks_1024::1          546                       # Occupied blocks per task id
system.cpu.dcache.tags.age_task_id_blocks_1024::2           43                       # Occupied blocks per task id
system.cpu.dcache.tags.age_task_id_blocks_1024::3          219                       # Occupied blocks per task id
system.cpu.dcache.tags.occ_task_id_percent::1024            1                       # Percentage of cache occupancy per task id
system.cpu.dcache.tags.tag_accesses          38807775                       # Number of tag accesses
system.cpu.dcache.tags.data_accesses         38807775                       # Number of data accesses
system.cpu.dcache.tags.power_state.pwrStateResidencyTicks::UNDEFINED   3639727000                       # Cumulative time (in ticks) in various power states
system.cpu.power_state.pwrStateResidencyTicks::ON   3639727000                       # Cumulative time (in ticks) in various power states
system.cpu.branchPred.lookups                 3077684                       # Number of BP lookups
system.cpu.branchPred.condPredicted           2914863                       # Number of conditional branches predicted
system.cpu.branchPred.condIncorrect            117324                       # Number of conditional branches incorrect
system.cpu.branchPred.BTBLookups              2533419                       # Number of BTB lookups
system.cpu.branchPred.BTBHits                 2529445                       # Number of BTB hits
system.cpu.branchPred.BTBHitPct             99.843137                       # BTB Hit Percentage
system.cpu.branchPred.RASUsed                   37120                       # Number of times the RAS was used to get a target.
system.cpu.branchPred.RASIncorrect                 15                       # Number of incorrect RAS predictions.
system.cpu.branchPred.indirectLookups           11889                       # Number of indirect predictor lookups.
system.cpu.branchPred.indirectHits               8764                       # Number of indirect target hits.
system.cpu.branchPred.indirectMisses             3125                       # Number of indirect misses.
system.cpu.branchPred.indirectMispredicted          463                       # Number of mispredicted indirect branches.
system.cpu.commit.commitSquashedInsts         4162991                       # The number of squashed insts skipped by commit
system.cpu.commit.commitNonSpecStalls             199                       # The number of times commit has been forced to stall to communicate backwards
system.cpu.commit.branchMispredicts            115016                       # The number of times a branch was mispredicted
system.cpu.commit.numCommittedDist::samples      6566699                       # Number of insts commited each cycle
system.cpu.commit.numCommittedDist::mean     3.507875                       # Number of insts commited each cycle
system.cpu.commit.numCommittedDist::stdev     3.515069                       # Number of insts commited each cycle
system.cpu.commit.numCommittedDist::underflows            0      0.00%      0.00% # Number of insts commited each cycle
system.cpu.commit.numCommittedDist::0         2210041     33.66%     33.66% # Number of insts commited each cycle
system.cpu.commit.numCommittedDist::1          899871     13.70%     47.36% # Number of insts commited each cycle
system.cpu.commit.numCommittedDist::2          440791      6.71%     54.07% # Number of insts commited each cycle
system.cpu.commit.numCommittedDist::3          283026      4.31%     58.38% # Number of insts commited each cycle
system.cpu.commit.numCommittedDist::4          265399      4.04%     62.42% # Number of insts commited each cycle
system.cpu.commit.numCommittedDist::5           68827      1.05%     63.47% # Number of insts commited each cycle
system.cpu.commit.numCommittedDist::6           54786      0.83%     64.31% # Number of insts commited each cycle
system.cpu.commit.numCommittedDist::7           81484      1.24%     65.55% # Number of insts commited each cycle
system.cpu.commit.numCommittedDist::8         2262474     34.45%    100.00% # Number of insts commited each cycle
system.cpu.commit.numCommittedDist::overflows            0      0.00%    100.00% # Number of insts commited each cycle
system.cpu.commit.numCommittedDist::min_value            0                       # Number of insts commited each cycle
system.cpu.commit.numCommittedDist::max_value            8                       # Number of insts commited each cycle
system.cpu.commit.numCommittedDist::total      6566699                       # Number of insts commited each cycle
system.cpu.commit.instsCommitted             11753987                       # Number of instructions committed
system.cpu.commit.opsCommitted               23035158                       # Number of ops (including micro ops) committed
system.cpu.commit.memRefs                     4539674                       # Number of memory references committed
system.cpu.commit.loads                       4085085                       # Number of loads committed
system.cpu.commit.amos                              0                       # Number of atomic instructions committed
system.cpu.commit.membars                           0                       # Number of memory barriers committed
system.cpu.commit.branches                    2257303                       # Number of branches committed
system.cpu.commit.vector                            0                       # Number of committed Vector instructions.
system.cpu.commit.floating                    4483498                       # Number of committed floating point instructions.
system.cpu.commit.integer                    20468261                       # Number of committed integer instructions.
system.cpu.commit.functionCalls                 27379                       # Number of function calls committed.
system.cpu.commit.committedInstType_0::No_OpClass       134211      0.58%      0.58% # Class of committed instruction
system.cpu.commit.committedInstType_0::IntAlu     15318919     66.50%     67.08% # Class of committed instruction
system.cpu.commit.committedInstType_0::IntMult        18643      0.08%     67.17% # Class of committed instruction
system.cpu.commit.committedInstType_0::IntDiv       567325      2.46%     69.63% # Class of committed instruction
system.cpu.commit.committedInstType_0::FloatAdd       197707      0.86%     70.49% # Class of committed instruction
system.cpu.commit.committedInstType_0::FloatCmp            0      0.00%     70.49% # Class of committed instruction
system.cpu.commit.committedInstType_0::FloatCvt            0      0.00%     70.49% # Class of committed instruction
system.cpu.commit.committedInstType_0::FloatMult            0      0.00%     70.49% # Class of committed instruction
system.cpu.commit.committedInstType_0::FloatMultAcc            0      0.00%     70.49% # Class of committed instruction
system.cpu.commit.committedInstType_0::FloatDiv            0      0.00%     70.49% # Class of committed instruction
system.cpu.commit.committedInstType_0::FloatMisc            0      0.00%     70.49% # Class of committed instruction
system.cpu.commit.committedInstType_0::FloatSqrt            0      0.00%     70.49% # Class of committed instruction
system.cpu.commit.committedInstType_0::SimdAdd         2442      0.01%     70.50% # Class of committed instruction
system.cpu.commit.committedInstType_0::SimdAddAcc            0      0.00%     70.50% # Class of committed instruction
system.cpu.commit.committedInstType_0::SimdAlu       323704      1.41%     71.90% # Class of committed instruction
system.cpu.commit.committedInstType_0::SimdCmp            0      0.00%     71.90% # Class of committed instruction
system.cpu.commit.committedInstType_0::SimdCvt        11138      0.05%     71.95% # Class of committed instruction
system.cpu.commit.committedInstType_0::SimdMisc        55423      0.24%     72.19% # Class of committed instruction
system.cpu.commit.committedInstType_0::SimdMult            0      0.00%     72.19% # Class of committed instruction
system.cpu.commit.committedInstType_0::SimdMultAcc            0      0.00%     72.19% # Class of committed instruction
system.cpu.commit.committedInstType_0::SimdShift         1222      0.01%     72.20% # Class of committed instruction
system.cpu.commit.committedInstType_0::SimdShiftAcc            0      0.00%     72.20% # Class of committed instruction
system.cpu.commit.committedInstType_0::SimdDiv            0      0.00%     72.20% # Class of committed instruction
system.cpu.commit.committedInstType_0::SimdSqrt            0      0.00%     72.20% # Class of committed instruction
system.cpu.commit.committedInstType_0::SimdFloatAdd      1667728      7.24%     79.44% # Class of committed instruction
system.cpu.commit.committedInstType_0::SimdFloatAlu            0      0.00%     79.44% # Class of committed instruction
system.cpu.commit.committedInstType_0::SimdFloatCmp            0      0.00%     79.44% # Class of committed instruction
system.cpu.commit.committedInstType_0::SimdFloatCvt        98667      0.43%     79.87% # Class of committed instruction
system.cpu.commit.committedInstType_0::SimdFloatDiv        49203      0.21%     80.08% # Class of committed instruction
system.cpu.commit.committedInstType_0::SimdFloatMisc            0      0.00%     80.08% # Class of committed instruction
system.cpu.commit.committedInstType_0::SimdFloatMult        49152      0.21%     80.29% # Class of committed instruction
system.cpu.commit.committedInstType_0::SimdFloatMultAcc            0      0.00%     80.29% # Class of committed instruction
system.cpu.commit.committedInstType_0::SimdFloatSqrt            0      0.00%     80.29% # Class of committed instruction
system.cpu.commit.committedInstType_0::SimdReduceAdd            0      0.00%     80.29% # Class of committed instruction
system.cpu.commit.committedInstType_0::SimdReduceAlu            0      0.00%     80.29% # Class of committed instruction
system.cpu.commit.committedInstType_0::SimdReduceCmp            0      0.00%     80.29% # Class of committed instruction
system.cpu.commit.committedInstType_0::SimdFloatReduceAdd            0      0.00%     80.29% # Class of committed instruction
system.cpu.commit.committedInstType_0::SimdFloatReduceCmp            0      0.00%     80.29% # Class of committed instruction
system.cpu.commit.committedInstType_0::SimdAes            0      0.00%     80.29% # Class of committed instruction
system.cpu.commit.committedInstType_0::SimdAesMix            0      0.00%     80.29% # Class of committed instruction
system.cpu.commit.committedInstType_0::SimdSha1Hash            0      0.00%     80.29% # Class of committed instruction
system.cpu.commit.committedInstType_0::SimdSha1Hash2            0      0.00%     80.29% # Class of committed instruction
system.cpu.commit.committedInstType_0::SimdSha256Hash            0      0.00%     80.29% # Class of committed instruction
system.cpu.commit.committedInstType_0::SimdSha256Hash2            0      0.00%     80.29% # Class of committed instruction
system.cpu.commit.committedInstType_0::SimdShaSigma2            0      0.00%     80.29% # Class of committed instruction
system.cpu.commit.committedInstType_0::SimdShaSigma3            0      0.00%     80.29% # Class of committed instruction
system.cpu.commit.committedInstType_0::SimdPredAlu            0      0.00%     80.29% # Class of committed instruction
system.cpu.commit.committedInstType_0::MemRead      2245183      9.75%     90.04% # Class of committed instruction
system.cpu.commit.committedInstType_0::MemWrite       286838      1.25%     91.28% # Class of committed instruction
system.cpu.commit.committedInstType_0::FloatMemRead      1839902      7.99%     99.27% # Class of committed instruction
system.cpu.commit.committedInstType_0::FloatMemWrite       167751      0.73%    100.00% # Class of committed instruction
system.cpu.commit.committedInstType_0::IprAccess            0      0.00%    100.00% # Class of committed instruction
system.cpu.commit.committedInstType_0::InstPrefetch            0      0.00%    100.00% # Class of committed instruction
system.cpu.commit.committedInstType_0::total     23035158                       # Class of committed instruction
system.cpu.commit.commitEligibleSamples       2262474                       # number cycles where commit BW limit reached
system.cpu.thread0.numInsts                  11753987                       # Number of Instructions committed
system.cpu.thread0.numOps                    23035158                       # Number of Ops committed
system.cpu.thread0.numMemRefs                       0                       # Number of Memory References
system.cpu.fetch.icacheStallCycles             839307                       # Number of cycles fetch is stalled on an Icache miss
system.cpu.fetch.insts                       15877632                       # Number of instructions fetch has processed
system.cpu.fetch.branches                     3077684                       # Number of branches that fetch encountered
system.cpu.fetch.predictedBranches            2575329                       # Number of branches that fetch has predicted taken
system.cpu.fetch.cycles                       6190410                       # Number of cycles fetch has run and was not squashing or blocked
system.cpu.fetch.squashCycles                  238976                       # Number of cycles fetch has spent squashing
system.cpu.fetch.miscStallCycles                  474                       # Number of cycles fetch has spent waiting on interrupts,or bad addresses, or out of MSHRs
system.cpu.fetch.pendingTrapStallCycles          3115                       # Number of stall cycles due to pending traps
system.cpu.fetch.pendingQuiesceStallCycles            1                       # Number of stall cycles due to pending quiesce instructions
system.cpu.fetch.icacheWaitRetryStallCycles           51                       # Number of stall cycles due to full MSHR
system.cpu.fetch.cacheLines                    753147                       # Number of cache lines fetched
system.cpu.fetch.icacheSquashes                 20955                       # Number of outstanding Icache misses that were squashed
system.cpu.fetch.nisnDist::samples            7152846                       # Number of instructions fetched each cycle (Total)
system.cpu.fetch.nisnDist::mean              4.232717                       # Number of instructions fetched each cycle (Total)
system.cpu.fetch.nisnDist::stdev             3.381636                       # Number of instructions fetched each cycle (Total)
system.cpu.fetch.nisnDist::underflows               0      0.00%      0.00% # Number of instructions fetched each cycle (Total)
system.cpu.fetch.nisnDist::0                  1661040     23.22%     23.22% # Number of instructions fetched each cycle (Total)
system.cpu.fetch.nisnDist::1                    65676      0.92%     24.14% # Number of instructions fetched each cycle (Total)
system.cpu.fetch.nisnDist::2                  1832252     25.62%     49.76% # Number of instructions fetched each cycle (Total)
system.cpu.fetch.nisnDist::3                   136166      1.90%     51.66% # Number of instructions fetched each cycle (Total)
system.cpu.fetch.nisnDist::4                   154937      2.17%     53.83% # Number of instructions fetched each cycle (Total)
system.cpu.fetch.nisnDist::5                   113814      1.59%     55.42% # Number of instructions fetched each cycle (Total)
system.cpu.fetch.nisnDist::6                   177917      2.49%     57.90% # Number of instructions fetched each cycle (Total)
system.cpu.fetch.nisnDist::7                   207374      2.90%     60.80% # Number of instructions fetched each cycle (Total)
system.cpu.fetch.nisnDist::8                  2803670     39.20%    100.00% # Number of instructions fetched each cycle (Total)
system.cpu.fetch.nisnDist::overflows                0      0.00%    100.00% # Number of instructions fetched each cycle (Total)
system.cpu.fetch.nisnDist::min_value                0                       # Number of instructions fetched each cycle (Total)
system.cpu.fetch.nisnDist::max_value                8                       # Number of instructions fetched each cycle (Total)
system.cpu.fetch.nisnDist::total              7152846                       # Number of instructions fetched each cycle (Total)
system.cpu.fetch.branchRate                  0.422790                       # Number of branch fetches per cycle
system.cpu.fetch.rate                        2.181157                       # Number of inst fetches per cycle

---------- End Simulation Statistics   ----------
