
---------- Begin Simulation Statistics ----------
final_tick                                 3743016000                       # Number of ticks from beginning of simulation (restored from checkpoints and never reset)
host_inst_rate                                 168798                       # Simulator instruction rate (inst/s)
host_mem_usage                                 727144                       # Number of bytes of host memory used
host_op_rate                                   330806                       # Simulator op (including micro ops) rate (op/s)
host_seconds                                    69.63                       # Real time elapsed on the host
host_tick_rate                               53753212                       # Simulator tick rate (ticks/s)
sim_freq                                 1000000000000                       # Frequency of simulated ticks
sim_insts                                    11753956                       # Number of instructions simulated
sim_ops                                      23035098                       # Number of ops (including micro ops) simulated
sim_seconds                                  0.003743                       # Number of seconds simulated
sim_ticks                                  3743016000                       # Number of ticks simulated
system.cpu.cc_regfile_reads                  12221002                       # number of cc regfile reads
system.cpu.cc_regfile_writes                  9783653                       # number of cc regfile writes
system.cpu.committedInsts                    11753956                       # Number of Instructions Simulated
system.cpu.committedOps                      23035098                       # Number of Ops (including micro ops) Simulated
system.cpu.cpi                               0.636895                       # CPI: Cycles Per Instruction
system.cpu.cpi_total                         0.636895                       # CPI: Total CPI of All Threads
system.cpu.fp_regfile_reads                   6463757                       # number of floating regfile reads
system.cpu.fp_regfile_writes                  4332280                       # number of floating regfile writes
system.cpu.idleCycles                          130161                       # Total number of cycles that the CPU has spent unscheduled due to idling
system.cpu.iew.branchMispredicts               122011                       # Number of branch mispredicts detected at execute
system.cpu.iew.exec_branches                  2435193                       # Number of branches executed
system.cpu.iew.exec_nop                             0                       # number of nop insts executed
system.cpu.iew.exec_rate                     3.395160                       # Inst execution rate
system.cpu.iew.exec_refs                      4906192                       # number of memory reference insts executed
system.cpu.iew.exec_stores                     534445                       # Number of stores executed
system.cpu.iew.exec_swp                             0                       # number of swp insts executed
system.cpu.iew.iewBlockCycles                  485647                       # Number of cycles IEW is blocking
system.cpu.iew.iewDispLoadInsts               4697966                       # Number of dispatched load instructions
system.cpu.iew.iewDispNonSpecInsts                194                       # Number of dispatched non-speculative instructions
system.cpu.iew.iewDispSquashedInsts             12607                       # Number of squashed instructions skipped by dispatch
system.cpu.iew.iewDispStoreInsts               716859                       # Number of dispatched store instructions
system.cpu.iew.iewDispatchedInsts            27283206                       # Number of instructions dispatched to IQ
system.cpu.iew.iewExecLoadInsts               4371747                       # Number of load instructions executed
system.cpu.iew.iewExecSquashedInsts            282090                       # Number of squashed instructions skipped in execute
system.cpu.iew.iewExecutedInsts              25416277                       # Number of executed instructions
system.cpu.iew.iewIQFullEvents                   2081                       # Number of times the IQ has become full, causing a stall
system.cpu.iew.iewIdleCycles                        0                       # Number of cycles IEW is idle
system.cpu.iew.iewLSQFullEvents                 99249                       # Number of times the LSQ has become full, causing a stall
system.cpu.iew.iewSquashCycles                 116739                       # Number of cycles IEW is squashing
system.cpu.iew.iewUnblockCycles                103928                       # Number of cycles IEW is unblocking
system.cpu.iew.memOrderViolationEvents            305                       # Number of memory order violations
system.cpu.iew.predictedNotTakenIncorrect        41360                       # Number of branches that were predicted not taken incorrectly
system.cpu.iew.predictedTakenIncorrect          80651                       # Number of branches that were predicted taken incorrectly
system.cpu.iew.wb_consumers                  33888179                       # num instructions consuming a value
system.cpu.iew.wb_count                      25250593                       # cumulative count of insts written-back
system.cpu.iew.wb_fanout                     0.627577                       # average fanout of values written-back
system.cpu.iew.wb_producers                  21267427                       # num instructions producing a value
system.cpu.iew.wb_rate                       3.373027                       # insts written-back per cycle
system.cpu.iew.wb_sent                       25292606                       # cumulative count of insts sent to commit
system.cpu.int_regfile_reads                 31871166                       # number of integer regfile reads
system.cpu.int_regfile_writes                19225586                       # number of integer regfile writes
system.cpu.ipc                               1.570118                       # IPC: Instructions Per Cycle
system.cpu.ipc_total                         1.570118                       # IPC: Total IPC of All Threads
system.cpu.iq.FU_type_0::No_OpClass            165800      0.65%      0.65% # Type of FU issued
system.cpu.iq.FU_type_0::IntAlu              17455528     67.92%     68.57% # Type of FU issued
system.cpu.iq.FU_type_0::IntMult                18967      0.07%     68.64% # Type of FU issued
system.cpu.iq.FU_type_0::IntDiv                630591      2.45%     71.10% # Type of FU issued
system.cpu.iq.FU_type_0::FloatAdd              198415      0.77%     71.87% # Type of FU issued
system.cpu.iq.FU_type_0::FloatCmp                   0      0.00%     71.87% # Type of FU issued
system.cpu.iq.FU_type_0::FloatCvt                   0      0.00%     71.87% # Type of FU issued
system.cpu.iq.FU_type_0::FloatMult                  0      0.00%     71.87% # Type of FU issued
system.cpu.iq.FU_type_0::FloatMultAcc               0      0.00%     71.87% # Type of FU issued
system.cpu.iq.FU_type_0::FloatDiv                   0      0.00%     71.87% # Type of FU issued
system.cpu.iq.FU_type_0::FloatMisc                  0      0.00%     71.87% # Type of FU issued
system.cpu.iq.FU_type_0::FloatSqrt                  0      0.00%     71.87% # Type of FU issued
system.cpu.iq.FU_type_0::SimdAdd                 2446      0.01%     71.88% # Type of FU issued
system.cpu.iq.FU_type_0::SimdAddAcc                 0      0.00%     71.88% # Type of FU issued
system.cpu.iq.FU_type_0::SimdAlu               324155      1.26%     73.14% # Type of FU issued
system.cpu.iq.FU_type_0::SimdCmp                    0      0.00%     73.14% # Type of FU issued
system.cpu.iq.FU_type_0::SimdCvt                11148      0.04%     73.18% # Type of FU issued
system.cpu.iq.FU_type_0::SimdMisc               55478      0.22%     73.40% # Type of FU issued
system.cpu.iq.FU_type_0::SimdMult                   0      0.00%     73.40% # Type of FU issued
system.cpu.iq.FU_type_0::SimdMultAcc                0      0.00%     73.40% # Type of FU issued
system.cpu.iq.FU_type_0::SimdShift               1232      0.00%     73.40% # Type of FU issued
system.cpu.iq.FU_type_0::SimdShiftAcc               0      0.00%     73.40% # Type of FU issued
system.cpu.iq.FU_type_0::SimdDiv                    0      0.00%     73.40% # Type of FU issued
system.cpu.iq.FU_type_0::SimdSqrt                   0      0.00%     73.40% # Type of FU issued
system.cpu.iq.FU_type_0::SimdFloatAdd         1667728      6.49%     79.89% # Type of FU issued
system.cpu.iq.FU_type_0::SimdFloatAlu               0      0.00%     79.89% # Type of FU issued
system.cpu.iq.FU_type_0::SimdFloatCmp               0      0.00%     79.89% # Type of FU issued
system.cpu.iq.FU_type_0::SimdFloatCvt           98703      0.38%     80.28% # Type of FU issued
system.cpu.iq.FU_type_0::SimdFloatDiv           49215      0.19%     80.47% # Type of FU issued
system.cpu.iq.FU_type_0::SimdFloatMisc              0      0.00%     80.47% # Type of FU issued
system.cpu.iq.FU_type_0::SimdFloatMult          49152      0.19%     80.66% # Type of FU issued
system.cpu.iq.FU_type_0::SimdFloatMultAcc            0      0.00%     80.66% # Type of FU issued
system.cpu.iq.FU_type_0::SimdFloatSqrt              0      0.00%     80.66% # Type of FU issued
system.cpu.iq.FU_type_0::SimdReduceAdd              0      0.00%     80.66% # Type of FU issued
system.cpu.iq.FU_type_0::SimdReduceAlu              0      0.00%     80.66% # Type of FU issued
system.cpu.iq.FU_type_0::SimdReduceCmp              0      0.00%     80.66% # Type of FU issued
system.cpu.iq.FU_type_0::SimdFloatReduceAdd            0      0.00%     80.66% # Type of FU issued
system.cpu.iq.FU_type_0::SimdFloatReduceCmp            0      0.00%     80.66% # Type of FU issued
system.cpu.iq.FU_type_0::SimdAes                    0      0.00%     80.66% # Type of FU issued
system.cpu.iq.FU_type_0::SimdAesMix                 0      0.00%     80.66% # Type of FU issued
system.cpu.iq.FU_type_0::SimdSha1Hash               0      0.00%     80.66% # Type of FU issued
system.cpu.iq.FU_type_0::SimdSha1Hash2              0      0.00%     80.66% # Type of FU issued
system.cpu.iq.FU_type_0::SimdSha256Hash             0      0.00%     80.66% # Type of FU issued
system.cpu.iq.FU_type_0::SimdSha256Hash2            0      0.00%     80.66% # Type of FU issued
system.cpu.iq.FU_type_0::SimdShaSigma2              0      0.00%     80.66% # Type of FU issued
system.cpu.iq.FU_type_0::SimdShaSigma3              0      0.00%     80.66% # Type of FU issued
system.cpu.iq.FU_type_0::SimdPredAlu                0      0.00%     80.66% # Type of FU issued
system.cpu.iq.FU_type_0::MemRead              2554234      9.94%     90.60% # Type of FU issued
system.cpu.iq.FU_type_0::MemWrite              370329      1.44%     92.04% # Type of FU issued
system.cpu.iq.FU_type_0::FloatMemRead         1866322      7.26%     99.30% # Type of FU issued
system.cpu.iq.FU_type_0::FloatMemWrite         178924      0.70%    100.00% # Type of FU issued
system.cpu.iq.FU_type_0::IprAccess                  0      0.00%    100.00% # Type of FU issued
system.cpu.iq.FU_type_0::InstPrefetch               0      0.00%    100.00% # Type of FU issued
system.cpu.iq.FU_type_0::total               25698367                       # Type of FU issued
system.cpu.iq.fp_alu_accesses                 4663651                       # Number of floating point alu accesses
system.cpu.iq.fp_inst_queue_reads             9187327                       # Number of floating instruction queue reads
system.cpu.iq.fp_inst_queue_wakeup_accesses      4510541                       # Number of floating instruction queue wakeup accesses
system.cpu.iq.fp_inst_queue_writes            5043218                       # Number of floating instruction queue writes
system.cpu.iq.fu_busy_cnt                      291869                       # FU busy when requested
system.cpu.iq.fu_busy_rate                   0.011357                       # FU busy rate (busy events/executed inst)
system.cpu.iq.fu_full::No_OpClass                   0      0.00%      0.00% # attempts to use FU when none available
system.cpu.iq.fu_full::IntAlu                  125435     42.98%     42.98% # attempts to use FU when none available
system.cpu.iq.fu_full::IntMult                      0      0.00%     42.98% # attempts to use FU when none available
system.cpu.iq.fu_full::IntDiv                       0      0.00%     42.98% # attempts to use FU when none available
system.cpu.iq.fu_full::FloatAdd                     0      0.00%     42.98% # attempts to use FU when none available
system.cpu.iq.fu_full::FloatCmp                     0      0.00%     42.98% # attempts to use FU when none available
system.cpu.iq.fu_full::FloatCvt                     0      0.00%     42.98% # attempts to use FU when none available
system.cpu.iq.fu_full::FloatMult                    0      0.00%     42.98% # attempts to use FU when none available
system.cpu.iq.fu_full::FloatMultAcc                 0      0.00%     42.98% # attempts to use FU when none available
system.cpu.iq.fu_full::FloatDiv                     0      0.00%     42.98% # attempts to use FU when none available
system.cpu.iq.fu_full::FloatMisc                    0      0.00%     42.98% # attempts to use FU when none available
system.cpu.iq.fu_full::FloatSqrt                    0      0.00%     42.98% # attempts to use FU when none available
system.cpu.iq.fu_full::SimdAdd                      0      0.00%     42.98% # attempts to use FU when none available
system.cpu.iq.fu_full::SimdAddAcc                   0      0.00%     42.98% # attempts to use FU when none available
system.cpu.iq.fu_full::SimdAlu                    363      0.12%     43.10% # attempts to use FU when none available
system.cpu.iq.fu_full::SimdCmp                      0      0.00%     43.10% # attempts to use FU when none available
system.cpu.iq.fu_full::SimdCvt                     76      0.03%     43.13% # attempts to use FU when none available
system.cpu.iq.fu_full::SimdMisc                   109      0.04%     43.16% # attempts to use FU when none available
system.cpu.iq.fu_full::SimdMult                     0      0.00%     43.16% # attempts to use FU when none available
system.cpu.iq.fu_full::SimdMultAcc                  0      0.00%     43.16% # attempts to use FU when none available
system.cpu.iq.fu_full::SimdShift                    0      0.00%     43.16% # attempts to use FU when none available
system.cpu.iq.fu_full::SimdShiftAcc                 0      0.00%     43.16% # attempts to use FU when none available
system.cpu.iq.fu_full::SimdDiv                      0      0.00%     43.16% # attempts to use FU when none available
system.cpu.iq.fu_full::SimdSqrt                     0      0.00%     43.16% # attempts to use FU when none available
system.cpu.iq.fu_full::SimdFloatAdd                 0      0.00%     43.16% # attempts to use FU when none available
system.cpu.iq.fu_full::SimdFloatAlu                 0      0.00%     43.16% # attempts to use FU when none available
system.cpu.iq.fu_full::SimdFloatCmp                 0      0.00%     43.16% # attempts to use FU when none available
system.cpu.iq.fu_full::SimdFloatCvt                 0      0.00%     43.16% # attempts to use FU when none available
system.cpu.iq.fu_full::SimdFloatDiv                80      0.03%     43.19% # attempts to use FU when none available
system.cpu.iq.fu_full::SimdFloatMisc                0      0.00%     43.19% # attempts to use FU when none available
system.cpu.iq.fu_full::SimdFloatMult                0      0.00%     43.19% # attempts to use FU when none available
system.cpu.iq.fu_full::SimdFloatMultAcc             0      0.00%     43.19% # attempts to use FU when none available
system.cpu.iq.fu_full::SimdFloatSqrt                0      0.00%     43.19% # attempts to use FU when none available
system.cpu.iq.fu_full::SimdReduceAdd                0      0.00%     43.19% # attempts to use FU when none available
system.cpu.iq.fu_full::SimdReduceAlu                0      0.00%     43.19% # attempts to use FU when none available
system.cpu.iq.fu_full::SimdReduceCmp                0      0.00%     43.19% # attempts to use FU when none available
system.cpu.iq.fu_full::SimdFloatReduceAdd            0      0.00%     43.19% # attempts to use FU when none available
system.cpu.iq.fu_full::SimdFloatReduceCmp            0      0.00%     43.19% # attempts to use FU when none available
system.cpu.iq.fu_full::SimdAes                      0      0.00%     43.19% # attempts to use FU when none available
system.cpu.iq.fu_full::SimdAesMix                   0      0.00%     43.19% # attempts to use FU when none available
system.cpu.iq.fu_full::SimdSha1Hash                 0      0.00%     43.19% # attempts to use FU when none available
system.cpu.iq.fu_full::SimdSha1Hash2                0      0.00%     43.19% # attempts to use FU when none available
system.cpu.iq.fu_full::SimdSha256Hash               0      0.00%     43.19% # attempts to use FU when none available
system.cpu.iq.fu_full::SimdSha256Hash2              0      0.00%     43.19% # attempts to use FU when none available
system.cpu.iq.fu_full::SimdShaSigma2                0      0.00%     43.19% # attempts to use FU when none available
system.cpu.iq.fu_full::SimdShaSigma3                0      0.00%     43.19% # attempts to use FU when none available
system.cpu.iq.fu_full::SimdPredAlu                  0      0.00%     43.19% # attempts to use FU when none available
system.cpu.iq.fu_full::MemRead                  23825      8.16%     51.35% # attempts to use FU when none available
system.cpu.iq.fu_full::MemWrite                  1355      0.46%     51.82% # attempts to use FU when none available
system.cpu.iq.fu_full::FloatMemRead            137034     46.95%     98.77% # attempts to use FU when none available
system.cpu.iq.fu_full::FloatMemWrite             3592      1.23%    100.00% # attempts to use FU when none available
system.cpu.iq.fu_full::IprAccess                    0      0.00%    100.00% # attempts to use FU when none available
system.cpu.iq.fu_full::InstPrefetch                 0      0.00%    100.00% # attempts to use FU when none available
system.cpu.iq.int_alu_accesses               21160785                       # Number of integer alu accesses
system.cpu.iq.int_inst_queue_reads           49870154                       # Number of integer instruction queue reads
system.cpu.iq.int_inst_queue_wakeup_accesses     20740052                       # Number of integer instruction queue wakeup accesses
system.cpu.iq.int_inst_queue_writes          26488355                       # Number of integer instruction queue writes
system.cpu.iq.iqInstsAdded                   27280969                       # Number of instructions added to the IQ (excludes non-spec)
system.cpu.iq.iqInstsIssued                  25698367                       # Number of instructions issued
system.cpu.iq.iqNonSpecInstsAdded                2237                       # Number of non-speculative instructions added to the IQ
system.cpu.iq.iqSquashedInstsExamined         4248102                       # Number of squashed instructions iterated over during squash; mainly for profiling
system.cpu.iq.iqSquashedInstsIssued             13006                       # Number of squashed instructions issued
system.cpu.iq.iqSquashedNonSpecRemoved           2038                       # Number of squashed non-spec instructions that were removed
system.cpu.iq.iqSquashedOperandsExamined      6385546                       # Number of squashed operands that are examined and possibly removed from graph
system.cpu.iq.issued_per_cycle::samples       7355872                       # Number of insts issued each cycle
system.cpu.iq.issued_per_cycle::mean         3.493585                       # Number of insts issued each cycle
system.cpu.iq.issued_per_cycle::stdev        2.387266                       # Number of insts issued each cycle
system.cpu.iq.issued_per_cycle::underflows            0      0.00%      0.00% # Number of insts issued each cycle
system.cpu.iq.issued_per_cycle::0             1407972     19.14%     19.14% # Number of insts issued each cycle
system.cpu.iq.issued_per_cycle::1              402114      5.47%     24.61% # Number of insts issued each cycle
system.cpu.iq.issued_per_cycle::2              531450      7.22%     31.83% # Number of insts issued each cycle
system.cpu.iq.issued_per_cycle::3             1222538     16.62%     48.45% # Number of insts issued each cycle
system.cpu.iq.issued_per_cycle::4             1275600     17.34%     65.79% # Number of insts issued each cycle
system.cpu.iq.issued_per_cycle::5              843366     11.47%     77.26% # Number of insts issued each cycle
system.cpu.iq.issued_per_cycle::6              828643     11.27%     88.52% # Number of insts issued each cycle
system.cpu.iq.issued_per_cycle::7              478861      6.51%     95.03% # Number of insts issued each cycle
system.cpu.iq.issued_per_cycle::8              365328      4.97%    100.00% # Number of insts issued each cycle
system.cpu.iq.issued_per_cycle::overflows            0      0.00%    100.00% # Number of insts issued each cycle
system.cpu.iq.issued_per_cycle::min_value            0                       # Number of insts issued each cycle
system.cpu.iq.issued_per_cycle::max_value            8                       # Number of insts issued each cycle
system.cpu.iq.issued_per_cycle::total         7355872                       # Number of insts issued each cycle
system.cpu.iq.rate                           3.432842                       # Inst issue rate
system.cpu.iq.vec_alu_accesses                      0                       # Number of vector alu accesses
system.cpu.iq.vec_inst_queue_reads                  0                       # Number of vector instruction queue reads
system.cpu.iq.vec_inst_queue_wakeup_accesses            0                       # Number of vector instruction queue wakeup accesses
system.cpu.iq.vec_inst_queue_writes                 0                       # Number of vector instruction queue writes
system.cpu.memDep0.conflictingLoads            283607                       # Number of conflicting loads.
system.cpu.memDep0.conflictingStores           233055                       # Number of conflicting stores.
system.cpu.memDep0.insertedLoads              4697966                       # Number of loads inserted to the mem dependence unit.
system.cpu.memDep0.insertedStores              716859                       # Number of stores inserted to the mem dependence unit.
system.cpu.misc_regfile_reads                 9777927                       # number of misc regfile reads
system.cpu.numCycles                          7486033                       # number of cpu cycles simulated
system.cpu.numWorkItemsCompleted                    0                       # number of work items this cpu completed
system.cpu.numWorkItemsStarted                      0                       # number of work items this cpu started
system.cpu.timesIdled                            1265                       # Number of times that the entire CPU went into an idle state and unscheduled itself
system.cpu.workload.numSyscalls                   163                       # Number of system calls
system.membus.snoop_filter.hit_multi_requests            0                       # Number of requests hitting in the snoop filter with multiple (>1) holders of the requested data.
system.membus.snoop_filter.hit_multi_snoops            0                       # Number of snoops hitting in the snoop filter with multiple (>1) holders of the requested data.
system.membus.snoop_filter.hit_single_requests          174                       # Number of requests hitting in the snoop filter with a single holder of the requested data.
system.membus.snoop_filter.hit_single_snoops            0                       # Number of snoops hitting in the snoop filter with a single holder of the requested data.
system.membus.snoop_filter.tot_requests          4895                       # Total number of requests made to the snoop filter.
system.membus.snoop_filter.tot_snoops               0                       # Total number of snoops made to the snoop filter.
system.tol2bus.snoop_filter.hit_multi_requests            6                       # Number of requests hitting in the snoop filter with multiple (>1) holders of the requested data.
system.tol2bus.snoop_filter.hit_multi_snoops            0                       # Number of snoops hitting in the snoop filter with multiple (>1) holders of the requested data.
system.tol2bus.snoop_filter.hit_single_requests       129235                       # Number of requests hitting in the snoop filter with a single holder of the requested data.
system.tol2bus.snoop_filter.hit_single_snoops          122                       # Number of snoops hitting in the snoop filter with a single holder of the requested data.
system.tol2bus.snoop_filter.tot_requests       259495                       # Total number of requests made to the snoop filter.
system.tol2bus.snoop_filter.tot_snoops            122                       # Total number of snoops made to the snoop filter.
system.membus.trans_dist::ReadResp               2064                       # Transaction distribution
system.membus.trans_dist::WritebackDirty           18                       # Transaction distribution
system.membus.trans_dist::CleanEvict              156                       # Transaction distribution
system.membus.trans_dist::ReadExReq              2657                       # Transaction distribution
system.membus.trans_dist::ReadExResp             2657                       # Transaction distribution
system.membus.trans_dist::ReadSharedReq          2064                       # Transaction distribution
system.membus.pkt_count_system.l2.mem_side_port::system.mem_ctrls.port         9616                       # Packet count per connected requestor and responder (bytes)
system.membus.pkt_count_system.l2.mem_side_port::total         9616                       # Packet count per connected requestor and responder (bytes)
system.membus.pkt_count::total                   9616                       # Packet count per connected requestor and responder (bytes)
system.membus.pkt_size_system.l2.mem_side_port::system.mem_ctrls.port       303296                       # Cumulative packet size per connected requestor and responder (bytes)
system.membus.pkt_size_system.l2.mem_side_port::total       303296                       # Cumulative packet size per connected requestor and responder (bytes)
system.membus.pkt_size::total                  303296                       # Cumulative packet size per connected requestor and responder (bytes)
system.membus.snoops                                0                       # Total snoops (count)
system.membus.snoopTraffic                          0                       # Total snoop traffic (bytes)
system.membus.snoop_fanout::samples              4721                       # Request fanout histogram
system.membus.snoop_fanout::mean                    0                       # Request fanout histogram
system.membus.snoop_fanout::stdev                   0                       # Request fanout histogram
system.membus.snoop_fanout::underflows              0      0.00%      0.00% # Request fanout histogram
system.membus.snoop_fanout::0                    4721    100.00%    100.00% # Request fanout histogram
system.membus.snoop_fanout::1                       0      0.00%    100.00% # Request fanout histogram
system.membus.snoop_fanout::overflows               0      0.00%    100.00% # Request fanout histogram
system.membus.snoop_fanout::min_value               0                       # Request fanout histogram
system.membus.snoop_fanout::max_value               0                       # Request fanout histogram
system.membus.snoop_fanout::total                4721                       # Request fanout histogram
system.membus.reqLayer2.occupancy             5989500                       # Layer occupancy (ticks)
system.membus.reqLayer2.utilization               0.2                       # Layer utilization (%)
system.membus.respLayer1.occupancy           25010500                       # Layer occupancy (ticks)
system.membus.respLayer1.utilization              0.7                       # Layer utilization (%)
system.membus.power_state.pwrStateResidencyTicks::UNDEFINED   3743016000                       # Cumulative time (in ticks) in various power states
system.tol2bus.trans_dist::ReadResp            119401                       # Transaction distribution
system.tol2bus.trans_dist::WritebackDirty       124274                       # Transaction distribution
system.tol2bus.trans_dist::WritebackClean         1868                       # Transaction distribution
system.tol2bus.trans_dist::CleanEvict            3382                       # Transaction distribution
system.tol2bus.trans_dist::ReadExReq            10858                       # Transaction distribution
system.tol2bus.trans_dist::ReadExResp           10858                       # Transaction distribution
system.tol2bus.trans_dist::ReadCleanReq          2381                       # Transaction distribution
system.tol2bus.trans_dist::ReadSharedReq       117021                       # Transaction distribution
system.tol2bus.pkt_count_system.cpu.icache.mem_side_port::system.l2.cpu_side_port         6627                       # Packet count per connected requestor and responder (bytes)
system.tol2bus.pkt_count_system.cpu.dcache.mem_side_port::system.l2.cpu_side_port       383125                       # Packet count per connected requestor and responder (bytes)
system.tol2bus.pkt_count::total                389752                       # Packet count per connected requestor and responder (bytes)
system.tol2bus.pkt_size_system.cpu.icache.mem_side_port::system.l2.cpu_side_port       271744                       # Cumulative packet size per connected requestor and responder (bytes)
system.tol2bus.pkt_size_system.cpu.dcache.mem_side_port::system.l2.cpu_side_port     16136640                       # Cumulative packet size per connected requestor and responder (bytes)
system.tol2bus.pkt_size::total               16408384                       # Cumulative packet size per connected requestor and responder (bytes)
system.tol2bus.snoops                             291                       # Total snoops (count)
system.tol2bus.snoopTraffic                      1280                       # Total snoop traffic (bytes)
system.tol2bus.snoop_fanout::samples           130549                       # Request fanout histogram
system.tol2bus.snoop_fanout::mean            0.000980                       # Request fanout histogram
system.tol2bus.snoop_fanout::stdev           0.031297                       # Request fanout histogram
system.tol2bus.snoop_fanout::underflows             0      0.00%      0.00% # Request fanout histogram
system.tol2bus.snoop_fanout::0                 130421     99.90%     99.90% # Request fanout histogram
system.tol2bus.snoop_fanout::1                    128      0.10%    100.00% # Request fanout histogram
system.tol2bus.snoop_fanout::2                      0      0.00%    100.00% # Request fanout histogram
system.tol2bus.snoop_fanout::3                      0      0.00%    100.00% # Request fanout histogram
system.tol2bus.snoop_fanout::4                      0      0.00%    100.00% # Request fanout histogram
system.tol2bus.snoop_fanout::overflows              0      0.00%    100.00% # Request fanout histogram
system.tol2bus.snoop_fanout::min_value              0                       # Request fanout histogram
system.tol2bus.snoop_fanout::max_value              1                       # Request fanout histogram
system.tol2bus.snoop_fanout::total             130549                       # Request fanout histogram
system.tol2bus.reqLayer0.occupancy          255871500                       # Layer occupancy (ticks)
system.tol2bus.reqLayer0.utilization              6.8                       # Layer utilization (%)
system.tol2bus.respLayer1.occupancy         191818999                       # Layer occupancy (ticks)
system.tol2bus.respLayer1.utilization             5.1                       # Layer utilization (%)
system.tol2bus.respLayer0.occupancy           3570499                       # Layer occupancy (ticks)
system.tol2bus.respLayer0.utilization             0.1                       # Layer utilization (%)
system.tol2bus.power_state.pwrStateResidencyTicks::UNDEFINED   3743016000                       # Cumulative time (in ticks) in various power states
system.voltage_domain.voltage                       1                       # Voltage in Volts
system.clk_domain.clock                          1000                       # Clock period in ticks
system.l2.demand_hits::.cpu.inst                  575                       # number of demand (read+write) hits
system.l2.demand_hits::.cpu.data               124960                       # number of demand (read+write) hits
system.l2.demand_hits::total                   125535                       # number of demand (read+write) hits
system.l2.overall_hits::.cpu.inst                 575                       # number of overall hits
system.l2.overall_hits::.cpu.data              124960                       # number of overall hits
system.l2.overall_hits::total                  125535                       # number of overall hits
system.l2.demand_misses::.cpu.inst               1804                       # number of demand (read+write) misses
system.l2.demand_misses::.cpu.data               2919                       # number of demand (read+write) misses
system.l2.demand_misses::total                   4723                       # number of demand (read+write) misses
system.l2.overall_misses::.cpu.inst              1804                       # number of overall misses
system.l2.overall_misses::.cpu.data              2919                       # number of overall misses
system.l2.overall_misses::total                  4723                       # number of overall misses
system.l2.demand_miss_latency::.cpu.inst    141514000                       # number of demand (read+write) miss cycles
system.l2.demand_miss_latency::.cpu.data    225114500                       # number of demand (read+write) miss cycles
system.l2.demand_miss_latency::total        366628500                       # number of demand (read+write) miss cycles
system.l2.overall_miss_latency::.cpu.inst    141514000                       # number of overall miss cycles
system.l2.overall_miss_latency::.cpu.data    225114500                       # number of overall miss cycles
system.l2.overall_miss_latency::total       366628500                       # number of overall miss cycles
system.l2.demand_accesses::.cpu.inst             2379                       # number of demand (read+write) accesses
system.l2.demand_accesses::.cpu.data           127879                       # number of demand (read+write) accesses
system.l2.demand_accesses::total               130258                       # number of demand (read+write) accesses
system.l2.overall_accesses::.cpu.inst            2379                       # number of overall (read+write) accesses
system.l2.overall_accesses::.cpu.data          127879                       # number of overall (read+write) accesses
system.l2.overall_accesses::total              130258                       # number of overall (read+write) accesses
system.l2.demand_miss_rate::.cpu.inst        0.758302                       # miss rate for demand accesses
system.l2.demand_miss_rate::.cpu.data        0.022826                       # miss rate for demand accesses
system.l2.demand_miss_rate::total            0.036259                       # miss rate for demand accesses
system.l2.overall_miss_rate::.cpu.inst       0.758302                       # miss rate for overall accesses
system.l2.overall_miss_rate::.cpu.data       0.022826                       # miss rate for overall accesses
system.l2.overall_miss_rate::total           0.036259                       # miss rate for overall accesses
system.l2.demand_avg_miss_latency::.cpu.inst 78444.567627                       # average overall miss latency
system.l2.demand_avg_miss_latency::.cpu.data 77120.417951                       # average overall miss latency
system.l2.demand_avg_miss_latency::total 77626.190980                       # average overall miss latency
system.l2.overall_avg_miss_latency::.cpu.inst 78444.567627                       # average overall miss latency
system.l2.overall_avg_miss_latency::.cpu.data 77120.417951                       # average overall miss latency
system.l2.overall_avg_miss_latency::total 77626.190980                       # average overall miss latency
system.l2.blocked_cycles::no_mshrs                  0                       # number of cycles access was blocked
system.l2.blocked_cycles::no_targets                0                       # number of cycles access was blocked
system.l2.blocked::no_mshrs                         0                       # number of cycles access was blocked
system.l2.blocked::no_targets                       0                       # number of cycles access was blocked
system.l2.avg_blocked_cycles::no_mshrs            nan                       # average number of cycles each access was blocked
system.l2.avg_blocked_cycles::no_targets          nan                       # average number of cycles each access was blocked
system.l2.writebacks::.writebacks                  18                       # number of writebacks
system.l2.writebacks::total                        18                       # number of writebacks
system.l2.demand_mshr_hits::.cpu.data               1                       # number of demand (read+write) MSHR hits
system.l2.demand_mshr_hits::total                   1                       # number of demand (read+write) MSHR hits
system.l2.overall_mshr_hits::.cpu.data              1                       # number of overall MSHR hits
system.l2.overall_mshr_hits::total                  1                       # number of overall MSHR hits
system.l2.demand_mshr_misses::.cpu.inst          1804                       # number of demand (read+write) MSHR misses
system.l2.demand_mshr_misses::.cpu.data          2918                       # number of demand (read+write) MSHR misses
system.l2.demand_mshr_misses::total              4722                       # number of demand (read+write) MSHR misses
system.l2.overall_mshr_misses::.cpu.inst         1804                       # number of overall MSHR misses
system.l2.overall_mshr_misses::.cpu.data         2918                       # number of overall MSHR misses
system.l2.overall_mshr_misses::total             4722                       # number of overall MSHR misses
system.l2.demand_mshr_miss_latency::.cpu.inst    123484000                       # number of demand (read+write) MSHR miss cycles
system.l2.demand_mshr_miss_latency::.cpu.data    195875000                       # number of demand (read+write) MSHR miss cycles
system.l2.demand_mshr_miss_latency::total    319359000                       # number of demand (read+write) MSHR miss cycles
system.l2.overall_mshr_miss_latency::.cpu.inst    123484000                       # number of overall MSHR miss cycles
system.l2.overall_mshr_miss_latency::.cpu.data    195875000                       # number of overall MSHR miss cycles
system.l2.overall_mshr_miss_latency::total    319359000                       # number of overall MSHR miss cycles
system.l2.demand_mshr_miss_rate::.cpu.inst     0.758302                       # mshr miss rate for demand accesses
system.l2.demand_mshr_miss_rate::.cpu.data     0.022818                       # mshr miss rate for demand accesses
system.l2.demand_mshr_miss_rate::total       0.036251                       # mshr miss rate for demand accesses
system.l2.overall_mshr_miss_rate::.cpu.inst     0.758302                       # mshr miss rate for overall accesses
system.l2.overall_mshr_miss_rate::.cpu.data     0.022818                       # mshr miss rate for overall accesses
system.l2.overall_mshr_miss_rate::total      0.036251                       # mshr miss rate for overall accesses
system.l2.demand_avg_mshr_miss_latency::.cpu.inst 68450.110865                       # average overall mshr miss latency
system.l2.demand_avg_mshr_miss_latency::.cpu.data 67126.456477                       # average overall mshr miss latency
system.l2.demand_avg_mshr_miss_latency::total 67632.147395                       # average overall mshr miss latency
system.l2.overall_avg_mshr_miss_latency::.cpu.inst 68450.110865                       # average overall mshr miss latency
system.l2.overall_avg_mshr_miss_latency::.cpu.data 67126.456477                       # average overall mshr miss latency
system.l2.overall_avg_mshr_miss_latency::total 67632.147395                       # average overall mshr miss latency
system.l2.replacements                            289                       # number of replacements
system.l2.WritebackDirty_hits::.writebacks       124256                       # number of WritebackDirty hits
system.l2.WritebackDirty_hits::total           124256                       # number of WritebackDirty hits
system.l2.WritebackDirty_accesses::.writebacks       124256                       # number of WritebackDirty accesses(hits+misses)
system.l2.WritebackDirty_accesses::total       124256                       # number of WritebackDirty accesses(hits+misses)
system.l2.WritebackClean_hits::.writebacks         1864                       # number of WritebackClean hits
system.l2.WritebackClean_hits::total             1864                       # number of WritebackClean hits
system.l2.WritebackClean_accesses::.writebacks         1864                       # number of WritebackClean accesses(hits+misses)
system.l2.WritebackClean_accesses::total         1864                       # number of WritebackClean accesses(hits+misses)
system.l2.CleanEvict_mshr_misses::.writebacks            7                       # number of CleanEvict MSHR misses
system.l2.CleanEvict_mshr_misses::total             7                       # number of CleanEvict MSHR misses
system.l2.CleanEvict_mshr_miss_rate::.writebacks          inf                       # mshr miss rate for CleanEvict accesses
system.l2.CleanEvict_mshr_miss_rate::total          inf                       # mshr miss rate for CleanEvict accesses
system.l2.ReadExReq_hits::.cpu.data              8201                       # number of ReadExReq hits
system.l2.ReadExReq_hits::total                  8201                       # number of ReadExReq hits
system.l2.ReadExReq_misses::.cpu.data            2657                       # number of ReadExReq misses
system.l2.ReadExReq_misses::total                2657                       # number of ReadExReq misses
system.l2.ReadExReq_miss_latency::.cpu.data    201869500                       # number of ReadExReq miss cycles
system.l2.ReadExReq_miss_latency::total     201869500                       # number of ReadExReq miss cycles
system.l2.ReadExReq_accesses::.cpu.data         10858                       # number of ReadExReq accesses(hits+misses)
system.l2.ReadExReq_accesses::total             10858                       # number of ReadExReq accesses(hits+misses)
system.l2.ReadExReq_miss_rate::.cpu.data     0.244704                       # miss rate for ReadExReq accesses
system.l2.ReadExReq_miss_rate::total         0.244704                       # miss rate for ReadExReq accesses
system.l2.ReadExReq_avg_miss_latency::.cpu.data 75976.477230                       # average ReadExReq miss latency
system.l2.ReadExReq_avg_miss_latency::total 75976.477230                       # average ReadExReq miss latency
system.l2.ReadExReq_mshr_misses::.cpu.data         2657                       # number of ReadExReq MSHR misses
system.l2.ReadExReq_mshr_misses::total           2657                       # number of ReadExReq MSHR misses
system.l2.ReadExReq_mshr_miss_latency::.cpu.data    175299500                       # number of ReadExReq MSHR miss cycles
system.l2.ReadExReq_mshr_miss_latency::total    175299500                       # number of ReadExReq MSHR miss cycles
system.l2.ReadExReq_mshr_miss_rate::.cpu.data     0.244704                       # mshr miss rate for ReadExReq accesses
system.l2.ReadExReq_mshr_miss_rate::total     0.244704                       # mshr miss rate for ReadExReq accesses
system.l2.ReadExReq_avg_mshr_miss_latency::.cpu.data 65976.477230                       # average ReadExReq mshr miss latency
system.l2.ReadExReq_avg_mshr_miss_latency::total 65976.477230                       # average ReadExReq mshr miss latency
system.l2.ReadCleanReq_hits::.cpu.inst            575                       # number of ReadCleanReq hits
system.l2.ReadCleanReq_hits::total                575                       # number of ReadCleanReq hits
system.l2.ReadCleanReq_misses::.cpu.inst         1804                       # number of ReadCleanReq misses
system.l2.ReadCleanReq_misses::total             1804                       # number of ReadCleanReq misses
system.l2.ReadCleanReq_miss_latency::.cpu.inst    141514000                       # number of ReadCleanReq miss cycles
system.l2.ReadCleanReq_miss_latency::total    141514000                       # number of ReadCleanReq miss cycles
system.l2.ReadCleanReq_accesses::.cpu.inst         2379                       # number of ReadCleanReq accesses(hits+misses)
system.l2.ReadCleanReq_accesses::total           2379                       # number of ReadCleanReq accesses(hits+misses)
system.l2.ReadCleanReq_miss_rate::.cpu.inst     0.758302                       # miss rate for ReadCleanReq accesses
system.l2.ReadCleanReq_miss_rate::total      0.758302                       # miss rate for ReadCleanReq accesses
system.l2.ReadCleanReq_avg_miss_latency::.cpu.inst 78444.567627                       # average ReadCleanReq miss latency
system.l2.ReadCleanReq_avg_miss_latency::total 78444.567627                       # average ReadCleanReq miss latency
system.l2.ReadCleanReq_mshr_misses::.cpu.inst         1804                       # number of ReadCleanReq MSHR misses
system.l2.ReadCleanReq_mshr_misses::total         1804                       # number of ReadCleanReq MSHR misses
system.l2.ReadCleanReq_mshr_miss_latency::.cpu.inst    123484000                       # number of ReadCleanReq MSHR miss cycles
system.l2.ReadCleanReq_mshr_miss_latency::total    123484000                       # number of ReadCleanReq MSHR miss cycles
system.l2.ReadCleanReq_mshr_miss_rate::.cpu.inst     0.758302                       # mshr miss rate for ReadCleanReq accesses
system.l2.ReadCleanReq_mshr_miss_rate::total     0.758302                       # mshr miss rate for ReadCleanReq accesses
system.l2.ReadCleanReq_avg_mshr_miss_latency::.cpu.inst 68450.110865                       # average ReadCleanReq mshr miss latency
system.l2.ReadCleanReq_avg_mshr_miss_latency::total 68450.110865                       # average ReadCleanReq mshr miss latency
system.l2.ReadSharedReq_hits::.cpu.data        116759                       # number of ReadSharedReq hits
system.l2.ReadSharedReq_hits::total            116759                       # number of ReadSharedReq hits
system.l2.ReadSharedReq_misses::.cpu.data          262                       # number of ReadSharedReq misses
system.l2.ReadSharedReq_misses::total             262                       # number of ReadSharedReq misses
system.l2.ReadSharedReq_miss_latency::.cpu.data     23245000                       # number of ReadSharedReq miss cycles
system.l2.ReadSharedReq_miss_latency::total     23245000                       # number of ReadSharedReq miss cycles
system.l2.ReadSharedReq_accesses::.cpu.data       117021                       # number of ReadSharedReq accesses(hits+misses)
system.l2.ReadSharedReq_accesses::total        117021                       # number of ReadSharedReq accesses(hits+misses)
system.l2.ReadSharedReq_miss_rate::.cpu.data     0.002239                       # miss rate for ReadSharedReq accesses
system.l2.ReadSharedReq_miss_rate::total     0.002239                       # miss rate for ReadSharedReq accesses
system.l2.ReadSharedReq_avg_miss_latency::.cpu.data 88721.374046                       # average ReadSharedReq miss latency
system.l2.ReadSharedReq_avg_miss_latency::total 88721.374046                       # average ReadSharedReq miss latency
system.l2.ReadSharedReq_mshr_hits::.cpu.data            1                       # number of ReadSharedReq MSHR hits
system.l2.ReadSharedReq_mshr_hits::total            1                       # number of ReadSharedReq MSHR hits
system.l2.ReadSharedReq_mshr_misses::.cpu.data          261                       # number of ReadSharedReq MSHR misses
system.l2.ReadSharedReq_mshr_misses::total          261                       # number of ReadSharedReq MSHR misses
system.l2.ReadSharedReq_mshr_miss_latency::.cpu.data     20575500                       # number of ReadSharedReq MSHR miss cycles
system.l2.ReadSharedReq_mshr_miss_latency::total     20575500                       # number of ReadSharedReq MSHR miss cycles
system.l2.ReadSharedReq_mshr_miss_rate::.cpu.data     0.002230                       # mshr miss rate for ReadSharedReq accesses
system.l2.ReadSharedReq_mshr_miss_rate::total     0.002230                       # mshr miss rate for ReadSharedReq accesses
system.l2.ReadSharedReq_avg_mshr_miss_latency::.cpu.data 78833.333333                       # average ReadSharedReq mshr miss latency
system.l2.ReadSharedReq_avg_mshr_miss_latency::total 78833.333333                       # average ReadSharedReq mshr miss latency
system.l2.power_state.pwrStateResidencyTicks::UNDEFINED   3743016000                       # Cumulative time (in ticks) in various power states
system.l2.tags.tagsinuse                  3977.378818                       # Cycle average of tags in use
system.l2.tags.total_refs                      259479                       # Total number of references to valid blocks.
system.l2.tags.sampled_refs                      4794                       # Sample count of references to valid blocks.
system.l2.tags.avg_refs                     54.125782                       # Average number of references to valid blocks.
system.l2.tags.warmup_cycle                     77000                       # Cycle when the warmup percentage was hit.
system.l2.tags.occ_blocks::.writebacks      41.291902                       # Average occupied blocks per requestor
system.l2.tags.occ_blocks::.cpu.inst      1450.376716                       # Average occupied blocks per requestor
system.l2.tags.occ_blocks::.cpu.data      2485.710200                       # Average occupied blocks per requestor
system.l2.tags.occ_percent::.writebacks      0.005041                       # Average percentage of cache occupancy
system.l2.tags.occ_percent::.cpu.inst        0.177048                       # Average percentage of cache occupancy
system.l2.tags.occ_percent::.cpu.data        0.303431                       # Average percentage of cache occupancy
system.l2.tags.occ_percent::total            0.485520                       # Average percentage of cache occupancy
system.l2.tags.occ_task_id_blocks::1024          4505                       # Occupied blocks per task id
system.l2.tags.age_task_id_blocks_1024::0           86                       # Occupied blocks per task id
system.l2.tags.age_task_id_blocks_1024::3         4419                       # Occupied blocks per task id
system.l2.tags.occ_task_id_percent::1024     0.549927                       # Percentage of cache occupancy per task id
system.l2.tags.tag_accesses                    523770                       # Number of tag accesses
system.l2.tags.data_accesses                   523770                       # Number of data accesses
system.l2.tags.power_state.pwrStateResidencyTicks::UNDEFINED   3743016000                       # Cumulative time (in ticks) in various power states
system.cpu_voltage_domain.voltage                   1                       # Voltage in Volts
system.mem_ctrls.avgPriority_.writebacks::samples        17.00                       # Average QoS priority value for accepted requests
system.mem_ctrls.avgPriority_.cpu.inst::samples      1803.00                       # Average QoS priority value for accepted requests
system.mem_ctrls.avgPriority_.cpu.data::samples      2916.00                       # Average QoS priority value for accepted requests
system.mem_ctrls.priorityMinLatency      0.000000018750                       # per QoS priority minimum request to response latency (s)
system.mem_ctrls.priorityMaxLatency      0.000000578500                       # per QoS priority maximum request to response latency (s)
system.mem_ctrls.numReadWriteTurnArounds            0                       # Number of turnarounds from READ to WRITE
system.mem_ctrls.numWriteReadTurnArounds            0                       # Number of turnarounds from WRITE to READ
system.mem_ctrls.numStayReadState               10358                       # Number of times bus staying in READ state
system.mem_ctrls.numStayWriteState                  0                       # Number of times bus staying in WRITE state
system.mem_ctrls.readReqs                        4721                       # Number of read requests accepted
system.mem_ctrls.writeReqs                         18                       # Number of write requests accepted
system.mem_ctrls.readBursts                      4721                       # Number of controller read bursts, including those serviced by the write queue
system.mem_ctrls.writeBursts                       18                       # Number of controller write bursts, including those merged in the write queue
system.mem_ctrls.servicedByWrQ                      2                       # Number of controller read bursts serviced by the write queue
system.mem_ctrls.mergedWrBursts                     1                       # Number of controller write bursts merged with an existing one
system.mem_ctrls.neitherReadNorWriteReqs            0                       # Number of requests that are neither read nor write
system.mem_ctrls.avgRdQLen                       1.07                       # Average read queue length when enqueuing
system.mem_ctrls.avgWrQLen                       9.57                       # Average write queue length when enqueuing
system.mem_ctrls.numRdRetry                         0                       # Number of times read queue was full causing retry
system.mem_ctrls.numWrRetry                         0                       # Number of times write queue was full causing retry
system.mem_ctrls.readPktSize::0                     0                       # Read request sizes (log2)
system.mem_ctrls.readPktSize::1                     0                       # Read request sizes (log2)
system.mem_ctrls.readPktSize::2                     0                       # Read request sizes (log2)
system.mem_ctrls.readPktSize::3                     0                       # Read request sizes (log2)
system.mem_ctrls.readPktSize::4                     0                       # Read request sizes (log2)
system.mem_ctrls.readPktSize::5                     0                       # Read request sizes (log2)
system.mem_ctrls.readPktSize::6                  4721                       # Read request sizes (log2)
system.mem_ctrls.writePktSize::0                    0                       # Write request sizes (log2)
system.mem_ctrls.writePktSize::1                    0                       # Write request sizes (log2)
system.mem_ctrls.writePktSize::2                    0                       # Write request sizes (log2)
system.mem_ctrls.writePktSize::3                    0                       # Write request sizes (log2)
system.mem_ctrls.writePktSize::4                    0                       # Write request sizes (log2)
system.mem_ctrls.writePktSize::5                    0                       # Write request sizes (log2)
system.mem_ctrls.writePktSize::6                   18                       # Write request sizes (log2)
system.mem_ctrls.rdQLenPdf::0                    3949                       # What read queue length does an incoming req see
system.mem_ctrls.rdQLenPdf::1                     602                       # What read queue length does an incoming req see
system.mem_ctrls.rdQLenPdf::2                     139                       # What read queue length does an incoming req see
system.mem_ctrls.rdQLenPdf::3                      23                       # What read queue length does an incoming req see
system.mem_ctrls.rdQLenPdf::4                       6                       # What read queue length does an incoming req see
system.mem_ctrls.rdQLenPdf::5                       0                       # What read queue length does an incoming req see
system.mem_ctrls.rdQLenPdf::6                       0                       # What read queue length does an incoming req see
system.mem_ctrls.rdQLenPdf::7                       0                       # What read queue length does an incoming req see
system.mem_ctrls.rdQLenPdf::8                       0                       # What read queue length does an incoming req see
system.mem_ctrls.rdQLenPdf::9                       0                       # What read queue length does an incoming req see
system.mem_ctrls.rdQLenPdf::10                      0                       # What read queue length does an incoming req see
system.mem_ctrls.rdQLenPdf::11                      0                       # What read queue length does an incoming req see
system.mem_ctrls.rdQLenPdf::12                      0                       # What read queue length does an incoming req see
system.mem_ctrls.rdQLenPdf::13                      0                       # What read queue length does an incoming req see
system.mem_ctrls.rdQLenPdf::14                      0                       # What read queue length does an incoming req see
system.mem_ctrls.rdQLenPdf::15                      0                       # What read queue length does an incoming req see
system.mem_ctrls.rdQLenPdf::16                      0                       # What read queue length does an incoming req see
system.mem_ctrls.rdQLenPdf::17                      0                       # What read queue length does an incoming req see
system.mem_ctrls.rdQLenPdf::18                      0                       # What read queue length does an incoming req see
system.mem_ctrls.rdQLenPdf::19                      0                       # What read queue length does an incoming req see
system.mem_ctrls.rdQLenPdf::20                      0                       # What read queue length does an incoming req see
system.mem_ctrls.rdQLenPdf::21                      0                       # What read queue length does an incoming req see
system.mem_ctrls.rdQLenPdf::22                      0                       # What read queue length does an incoming req see
system.mem_ctrls.rdQLenPdf::23                      0                       # What read queue length does an incoming req see
system.mem_ctrls.rdQLenPdf::24                      0                       # What read queue length does an incoming req see
system.mem_ctrls.rdQLenPdf::25                      0                       # What read queue length does an incoming req see
system.mem_ctrls.rdQLenPdf::26                      0                       # What read queue length does an incoming req see
system.mem_ctrls.rdQLenPdf::27                      0                       # What read queue length does an incoming req see
system.mem_ctrls.rdQLenPdf::28                      0                       # What read queue length does an incoming req see
system.mem_ctrls.rdQLenPdf::29                      0                       # What read queue length does an incoming req see
system.mem_ctrls.rdQLenPdf::30                      0                       # What read queue length does an incoming req see
system.mem_ctrls.rdQLenPdf::31                      0                       # What read queue length does an incoming req see
system.mem_ctrls.wrQLenPdf::0                       1                       # What write queue length does an incoming req see
system.mem_ctrls.wrQLenPdf::1                       1                       # What write queue length does an incoming req see
system.mem_ctrls.wrQLenPdf::2                       1                       # What write queue length does an incoming req see
system.mem_ctrls.wrQLenPdf::3                       1                       # What write queue length does an incoming req see
system.mem_ctrls.wrQLenPdf::4                       1                       # What write queue length does an incoming req see
system.mem_ctrls.wrQLenPdf::5                       1                       # What write queue length does an incoming req see
system.mem_ctrls.wrQLenPdf::6                       1                       # What write queue length does an incoming req see
system.mem_ctrls.wrQLenPdf::7                       1                       # What write queue length does an incoming req see
system.mem_ctrls.wrQLenPdf::8                       1                       # What write queue length does an incoming req see
system.mem_ctrls.wrQLenPdf::9                       1                       # What write queue length does an incoming req see
system.mem_ctrls.wrQLenPdf::10                      1                       # What write queue length does an incoming req see
system.mem_ctrls.wrQLenPdf::11                      1                       # What write queue length does an incoming req see
system.mem_ctrls.wrQLenPdf::12                      1                       # What write queue length does an incoming req see
system.mem_ctrls.wrQLenPdf::13                      1                       # What write queue length does an incoming req see
system.mem_ctrls.wrQLenPdf::14                      1                       # What write queue length does an incoming req see
system.mem_ctrls.wrQLenPdf::15                      1                       # What write queue length does an incoming req see
system.mem_ctrls.wrQLenPdf::16                      1                       # What write queue length does an incoming req see
system.mem_ctrls.wrQLenPdf::17                      0                       # What write queue length does an incoming req see
system.mem_ctrls.wrQLenPdf::18                      0                       # What write queue length does an incoming req see
system.mem_ctrls.wrQLenPdf::19                      0                       # What write queue length does an incoming req see
system.mem_ctrls.wrQLenPdf::20                      0                       # What write queue length does an incoming req see
system.mem_ctrls.wrQLenPdf::21                      0                       # What write queue length does an incoming req see
system.mem_ctrls.wrQLenPdf::22                      0                       # What write queue length does an incoming req see
system.mem_ctrls.wrQLenPdf::23                      0                       # What write queue length does an incoming req see
system.mem_ctrls.wrQLenPdf::24                      0                       # What write queue length does an incoming req see
system.mem_ctrls.wrQLenPdf::25                      0                       # What write queue length does an incoming req see
system.mem_ctrls.wrQLenPdf::26                      0                       # What write queue length does an incoming req see
system.mem_ctrls.wrQLenPdf::27                      0                       # What write queue length does an incoming req see
system.mem_ctrls.wrQLenPdf::28                      0                       # What write queue length does an incoming req see
system.mem_ctrls.wrQLenPdf::29                      0                       # What write queue length does an incoming req see
system.mem_ctrls.wrQLenPdf::30                      0                       # What write queue length does an incoming req see
system.mem_ctrls.wrQLenPdf::31                      0                       # What write queue length does an incoming req see
system.mem_ctrls.wrQLenPdf::32                      0                       # What write queue length does an incoming req see
system.mem_ctrls.wrQLenPdf::33                      0                       # What write queue length does an incoming req see
system.mem_ctrls.wrQLenPdf::34                      0                       # What write queue length does an incoming req see
system.mem_ctrls.wrQLenPdf::35                      0                       # What write queue length does an incoming req see
system.mem_ctrls.wrQLenPdf::36                      0                       # What write queue length does an incoming req see
system.mem_ctrls.wrQLenPdf::37                      0                       # What write queue length does an incoming req see
system.mem_ctrls.wrQLenPdf::38                      0                       # What write queue length does an incoming req see
system.mem_ctrls.wrQLenPdf::39                      0                       # What write queue length does an incoming req see
system.mem_ctrls.wrQLenPdf::40                      0                       # What write queue length does an incoming req see
system.mem_ctrls.wrQLenPdf::41                      0                       # What write queue length does an incoming req see
system.mem_ctrls.wrQLenPdf::42                      0                       # What write queue length does an incoming req see
system.mem_ctrls.wrQLenPdf::43                      0                       # What write queue length does an incoming req see
system.mem_ctrls.wrQLenPdf::44                      0                       # What write queue length does an incoming req see
system.mem_ctrls.wrQLenPdf::45                      0                       # What write queue length does an incoming req see
system.mem_ctrls.wrQLenPdf::46                      0                       # What write queue length does an incoming req see
system.mem_ctrls.wrQLenPdf::47                      0                       # What write queue length does an incoming req see
system.mem_ctrls.wrQLenPdf::48                      0                       # What write queue length does an incoming req see
system.mem_ctrls.wrQLenPdf::49                      0                       # What write queue length does an incoming req see
system.mem_ctrls.wrQLenPdf::50                      0                       # What write queue length does an incoming req see
system.mem_ctrls.wrQLenPdf::51                      0                       # What write queue length does an incoming req see
system.mem_ctrls.wrQLenPdf::52                      0                       # What write queue length does an incoming req see
system.mem_ctrls.wrQLenPdf::53                      0                       # What write queue length does an incoming req see
system.mem_ctrls.wrQLenPdf::54                      0                       # What write queue length does an incoming req see
system.mem_ctrls.wrQLenPdf::55                      0                       # What write queue length does an incoming req see
system.mem_ctrls.wrQLenPdf::56                      0                       # What write queue length does an incoming req see
system.mem_ctrls.wrQLenPdf::57                      0                       # What write queue length does an incoming req see
system.mem_ctrls.wrQLenPdf::58                      0                       # What write queue length does an incoming req see
system.mem_ctrls.wrQLenPdf::59                      0                       # What write queue length does an incoming req see
system.mem_ctrls.wrQLenPdf::60                      0                       # What write queue length does an incoming req see
system.mem_ctrls.wrQLenPdf::61                      0                       # What write queue length does an incoming req see
system.mem_ctrls.wrQLenPdf::62                      0                       # What write queue length does an incoming req see
system.mem_ctrls.wrQLenPdf::63                      0                       # What write queue length does an incoming req see
system.mem_ctrls.bytesReadWrQ                     128                       # Total number of bytes read from write queue
system.mem_ctrls.bytesReadSys                  302144                       # Total read bytes from the system interface side
system.mem_ctrls.bytesWrittenSys                 1152                       # Total written bytes from the system interface side
system.mem_ctrls.avgRdBWSys                     80.72                       # Average system read bandwidth in MiByte/s
system.mem_ctrls.avgWrBWSys                      0.31                       # Average system write bandwidth in MiByte/s
system.mem_ctrls.totGap                    3742927000                       # Total gap between requests
system.mem_ctrls.avgGap                     789813.67                       # Average gap between requests
system.mem_ctrls.requestorReadBytes::.cpu.inst       115392                       # Per-requestor bytes read from memory
system.mem_ctrls.requestorReadBytes::.cpu.data       186624                       # Per-requestor bytes read from memory
system.mem_ctrls.requestorReadRate::.cpu.inst 30828615.212972640991                       # Per-requestor bytes read from memory rate (Bytes/sec)
system.mem_ctrls.requestorReadRate::.cpu.data 49859257.881879210472                       # Per-requestor bytes read from memory rate (Bytes/sec)
system.mem_ctrls.requestorReadAccesses::.cpu.inst         1803                       # Per-requestor read serviced memory accesses
system.mem_ctrls.requestorReadAccesses::.cpu.data         2918                       # Per-requestor read serviced memory accesses
system.mem_ctrls.requestorWriteAccesses::.writebacks           18                       # Per-requestor write serviced memory accesses
system.mem_ctrls.requestorReadTotalLat::.cpu.inst     49353500                       # Per-requestor read total memory access latency
system.mem_ctrls.requestorReadTotalLat::.cpu.data     76226750                       # Per-requestor read total memory access latency
system.mem_ctrls.requestorReadAvgLat::.cpu.inst     27372.99                       # Per-requestor read average memory access latency
system.mem_ctrls.requestorReadAvgLat::.cpu.data     26122.94                       # Per-requestor read average memory access latency
system.mem_ctrls.requestorWriteAvgLat::.writebacks         0.00                       # Per-requestor write average memory access latency
system.mem_ctrls.dram.bytes_read::.cpu.inst       115392                       # Number of bytes read from this memory
system.mem_ctrls.dram.bytes_read::.cpu.data       186752                       # Number of bytes read from this memory
system.mem_ctrls.dram.bytes_read::total        302144                       # Number of bytes read from this memory
system.mem_ctrls.dram.bytes_inst_read::.cpu.inst       115392                       # Number of instructions bytes read from this memory
system.mem_ctrls.dram.bytes_inst_read::total       115392                       # Number of instructions bytes read from this memory
system.mem_ctrls.dram.bytes_written::.writebacks         1152                       # Number of bytes written to this memory
system.mem_ctrls.dram.bytes_written::total         1152                       # Number of bytes written to this memory
system.mem_ctrls.dram.num_reads::.cpu.inst         1803                       # Number of read requests responded to by this memory
system.mem_ctrls.dram.num_reads::.cpu.data         2918                       # Number of read requests responded to by this memory
system.mem_ctrls.dram.num_reads::total           4721                       # Number of read requests responded to by this memory
system.mem_ctrls.dram.num_writes::.writebacks           18                       # Number of write requests responded to by this memory
system.mem_ctrls.dram.num_writes::total            18                       # Number of write requests responded to by this memory
system.mem_ctrls.dram.bw_read::.cpu.inst     30828615                       # Total read bandwidth from this memory (bytes/s)
system.mem_ctrls.dram.bw_read::.cpu.data     49893455                       # Total read bandwidth from this memory (bytes/s)
system.mem_ctrls.dram.bw_read::total         80722070                       # Total read bandwidth from this memory (bytes/s)
system.mem_ctrls.dram.bw_inst_read::.cpu.inst     30828615                       # Instruction read bandwidth from this memory (bytes/s)
system.mem_ctrls.dram.bw_inst_read::total     30828615                       # Instruction read bandwidth from this memory (bytes/s)
system.mem_ctrls.dram.bw_write::.writebacks       307773                       # Write bandwidth from this memory (bytes/s)
system.mem_ctrls.dram.bw_write::total          307773                       # Write bandwidth from this memory (bytes/s)
system.mem_ctrls.dram.bw_total::.writebacks       307773                       # Total bandwidth to/from this memory (bytes/s)
system.mem_ctrls.dram.bw_total::.cpu.inst     30828615                       # Total bandwidth to/from this memory (bytes/s)
system.mem_ctrls.dram.bw_total::.cpu.data     49893455                       # Total bandwidth to/from this memory (bytes/s)
system.mem_ctrls.dram.bw_total::total        81029843                       # Total bandwidth to/from this memory (bytes/s)
system.mem_ctrls.dram.readBursts                 4719                       # Number of DRAM read bursts
system.mem_ctrls.dram.writeBursts                   0                       # Number of DRAM write bursts
system.mem_ctrls.dram.perBankRdBursts::0          325                       # Per bank write bursts
system.mem_ctrls.dram.perBankRdBursts::1          377                       # Per bank write bursts
system.mem_ctrls.dram.perBankRdBursts::2          441                       # Per bank write bursts
system.mem_ctrls.dram.perBankRdBursts::3          430                       # Per bank write bursts
system.mem_ctrls.dram.perBankRdBursts::4          347                       # Per bank write bursts
system.mem_ctrls.dram.perBankRdBursts::5          388                       # Per bank write bursts
system.mem_ctrls.dram.perBankRdBursts::6          254                       # Per bank write bursts
system.mem_ctrls.dram.perBankRdBursts::7          173                       # Per bank write bursts
system.mem_ctrls.dram.perBankRdBursts::8          238                       # Per bank write bursts
system.mem_ctrls.dram.perBankRdBursts::9          213                       # Per bank write bursts
system.mem_ctrls.dram.perBankRdBursts::10          304                       # Per bank write bursts
system.mem_ctrls.dram.perBankRdBursts::11          209                       # Per bank write bursts
system.mem_ctrls.dram.perBankRdBursts::12          161                       # Per bank write bursts
system.mem_ctrls.dram.perBankRdBursts::13          269                       # Per bank write bursts
system.mem_ctrls.dram.perBankRdBursts::14          292                       # Per bank write bursts
system.mem_ctrls.dram.perBankRdBursts::15          298                       # Per bank write bursts
system.mem_ctrls.dram.perBankWrBursts::0            0                       # Per bank write bursts
system.mem_ctrls.dram.perBankWrBursts::1            0                       # Per bank write bursts
system.mem_ctrls.dram.perBankWrBursts::2            0                       # Per bank write bursts
system.mem_ctrls.dram.perBankWrBursts::3            0                       # Per bank write bursts
system.mem_ctrls.dram.perBankWrBursts::4            0                       # Per bank write bursts
system.mem_ctrls.dram.perBankWrBursts::5            0                       # Per bank write bursts
system.mem_ctrls.dram.perBankWrBursts::6            0                       # Per bank write bursts
system.mem_ctrls.dram.perBankWrBursts::7            0                       # Per bank write bursts
system.mem_ctrls.dram.perBankWrBursts::8            0                       # Per bank write bursts
system.mem_ctrls.dram.perBankWrBursts::9            0                       # Per bank write bursts
system.mem_ctrls.dram.perBankWrBursts::10            0                       # Per bank write bursts
system.mem_ctrls.dram.perBankWrBursts::11            0                       # Per bank write bursts
system.mem_ctrls.dram.perBankWrBursts::12            0                       # Per bank write bursts
system.mem_ctrls.dram.perBankWrBursts::13            0                       # Per bank write bursts
system.mem_ctrls.dram.perBankWrBursts::14            0                       # Per bank write bursts
system.mem_ctrls.dram.perBankWrBursts::15            0                       # Per bank write bursts
system.mem_ctrls.dram.totQLat                37099000                       # Total ticks spent queuing
system.mem_ctrls.dram.totBusLat              23595000                       # Total ticks spent in databus transfers
system.mem_ctrls.dram.totMemAccLat          125580250                       # Total ticks spent from burst creation until serviced by the DRAM
system.mem_ctrls.dram.avgQLat                 7861.62                       # Average queueing delay per DRAM burst
system.mem_ctrls.dram.avgBusLat               5000.00                       # Average bus latency per DRAM burst
system.mem_ctrls.dram.avgMemAccLat           26611.62                       # Average memory access latency per DRAM burst
system.mem_ctrls.dram.readRowHits                3844                       # Number of row buffer hits during reads
system.mem_ctrls.dram.writeRowHits                  0                       # Number of row buffer hits during writes
system.mem_ctrls.dram.readRowHitRate            81.46                       # Row buffer hit rate for reads
system.mem_ctrls.dram.writeRowHitRate             nan                       # Row buffer hit rate for writes
system.mem_ctrls.dram.bytesPerActivate::samples          863                       # Bytes accessed per row activation
system.mem_ctrls.dram.bytesPerActivate::mean   347.661645                       # Bytes accessed per row activation
system.mem_ctrls.dram.bytesPerActivate::gmean   221.925924                       # Bytes accessed per row activation
system.mem_ctrls.dram.bytesPerActivate::stdev   316.083951                       # Bytes accessed per row activation
system.mem_ctrls.dram.bytesPerActivate::0-127          238     27.58%     27.58% # Bytes accessed per row activation
system.mem_ctrls.dram.bytesPerActivate::128-255          190     22.02%     49.59% # Bytes accessed per row activation
system.mem_ctrls.dram.bytesPerActivate::256-383          121     14.02%     63.62% # Bytes accessed per row activation
system.mem_ctrls.dram.bytesPerActivate::384-511           78      9.04%     72.65% # Bytes accessed per row activation
system.mem_ctrls.dram.bytesPerActivate::512-639           63      7.30%     79.95% # Bytes accessed per row activation
system.mem_ctrls.dram.bytesPerActivate::640-767           34      3.94%     83.89% # Bytes accessed per row activation
[...]
system.cpu.dcache.SoftPFReq_hits::.cpu.data         2105                       # number of SoftPFReq hits
system.cpu.dcache.SoftPFReq_hits::total          2105                       # number of SoftPFReq hits
system.cpu.dcache.SoftPFReq_misses::.cpu.data          599                       # number of SoftPFReq misses
system.cpu.dcache.SoftPFReq_misses::total          599                       # number of SoftPFReq misses
system.cpu.dcache.SoftPFReq_accesses::.cpu.data         2704                       # number of SoftPFReq accesses(hits+misses)
system.cpu.dcache.SoftPFReq_accesses::total         2704                       # number of SoftPFReq accesses(hits+misses)
system.cpu.dcache.SoftPFReq_miss_rate::.cpu.data     0.221524                       # miss rate for SoftPFReq accesses
system.cpu.dcache.SoftPFReq_miss_rate::total     0.221524                       # miss rate for SoftPFReq accesses
system.cpu.dcache.SoftPFReq_mshr_misses::.cpu.data          414                       # number of SoftPFReq MSHR misses
system.cpu.dcache.SoftPFReq_mshr_misses::total          414                       # number of SoftPFReq MSHR misses
system.cpu.dcache.SoftPFReq_mshr_miss_latency::.cpu.data      5038000                       # number of SoftPFReq MSHR miss cycles
system.cpu.dcache.SoftPFReq_mshr_miss_latency::total      5038000                       # number of SoftPFReq MSHR miss cycles
system.cpu.dcache.SoftPFReq_mshr_miss_rate::.cpu.data     0.153107                       # mshr miss rate for SoftPFReq accesses
system.cpu.dcache.SoftPFReq_mshr_miss_rate::total     0.153107                       # mshr miss rate for SoftPFReq accesses
system.cpu.dcache.SoftPFReq_avg_mshr_miss_latency::.cpu.data 12169.082126                       # average SoftPFReq mshr miss latency
system.cpu.dcache.SoftPFReq_avg_mshr_miss_latency::total 12169.082126                       # average SoftPFReq mshr miss latency
system.cpu.dcache.power_state.pwrStateResidencyTicks::UNDEFINED   3743016000                       # Cumulative time (in ticks) in various power states
system.cpu.dcache.tags.tagsinuse           505.536538                       # Cycle average of tags in use
system.cpu.dcache.tags.total_refs             3875708                       # Total number of references to valid blocks.
system.cpu.dcache.tags.sampled_refs            127879                       # Sample count of references to valid blocks.
system.cpu.dcache.tags.avg_refs             30.307619                       # Average number of references to valid blocks.
system.cpu.dcache.tags.warmup_cycle            176500                       # Cycle when the warmup percentage was hit.
system.cpu.dcache.tags.occ_blocks::.cpu.data   505.536538                       # Average occupied blocks per requestor
system.cpu.dcache.tags.occ_percent::.cpu.data     0.987376                       # Average percentage of cache occupancy
system.cpu.dcache.tags.occ_percent::total     0.987376                       # Average percentage of cache occupancy
system.cpu.dcache.tags.occ_task_id_blocks::1024          512                       # Occupied blocks per task id
system.cpu.dcache.tags.age_task_id_blocks_1024::0          225                       # Occupied blocks per task id
system.cpu.dcache.tags.age_task_id_blocks_1024::1          252                       # Occupied blocks per task id
system.cpu.dcache.tags.age_task_id_blocks_1024::3           35                       # Occupied blocks per task id
system.cpu.dcache.tags.occ_task_id_percent::1024            1                       # Percentage of cache occupancy per task id
system.cpu.dcache.tags.tag_accesses          38823359                       # Number of tag accesses
system.cpu.dcache.tags.data_accesses         38823359                       # Number of data accesses
system.cpu.dcache.tags.power_state.pwrStateResidencyTicks::UNDEFINED   3743016000                       # Cumulative time (in ticks) in various power states
system.cpu.power_state.pwrStateResidencyTicks::ON   3743016000                       # Cumulative time (in ticks) in various power states
system.cpu.branchPred.lookups                 3092111                       # Number of BP lookups
system.cpu.branchPred.condPredicted           2929311                       # Number of conditional branches predicted
system.cpu.branchPred.condIncorrect            117398                       # Number of conditional branches incorrect
system.cpu.branchPred.BTBLookups              2547400                       # Number of BTB lookups
system.cpu.branchPred.BTBHits                 2543406                       # Number of BTB hits
system.cpu.branchPred.BTBHitPct             99.843213                       # BTB Hit Percentage
system.cpu.branchPred.RASUsed                   37074                       # Number of times the RAS was used to get a target.
system.cpu.branchPred.RASIncorrect                 14                       # Number of incorrect RAS predictions.
system.cpu.branchPred.indirectLookups           11825                       # Number of indirect predictor lookups.
system.cpu.branchPred.indirectHits               8749                       # Number of indirect target hits.
system.cpu.branchPred.indirectMisses             3076                       # Number of indirect misses.
system.cpu.branchPred.indirectMispredicted          463                       # Number of mispredicted indirect branches.
system.cpu.commit.commitSquashedInsts         4193874                       # The number of squashed insts skipped by commit
system.cpu.commit.commitNonSpecStalls             199                       # The number of times commit has been forced to stall to communicate backwards
system.cpu.commit.branchMispredicts            115013                       # The number of times a branch was mispredicted
system.cpu.commit.numCommittedDist::samples      6765612                       # Number of insts commited each cycle
system.cpu.commit.numCommittedDist::mean     3.404732                       # Number of insts commited each cycle
system.cpu.commit.numCommittedDist::stdev     3.548599                       # Number of insts commited each cycle
system.cpu.commit.numCommittedDist::underflows            0      0.00%      0.00% # Number of insts commited each cycle
system.cpu.commit.numCommittedDist::0         2529696     37.39%     37.39% # Number of insts commited each cycle
system.cpu.commit.numCommittedDist::1          822039     12.15%     49.54% # Number of insts commited each cycle
system.cpu.commit.numCommittedDist::2          408096      6.03%     55.57% # Number of insts commited each cycle
system.cpu.commit.numCommittedDist::3          250309      3.70%     59.27% # Number of insts commited each cycle
system.cpu.commit.numCommittedDist::4          256113      3.79%     63.06% # Number of insts commited each cycle
system.cpu.commit.numCommittedDist::5           55876      0.83%     63.88% # Number of insts commited each cycle
system.cpu.commit.numCommittedDist::6           63095      0.93%     64.82% # Number of insts commited each cycle
system.cpu.commit.numCommittedDist::7           79566      1.18%     65.99% # Number of insts commited each cycle
system.cpu.commit.numCommittedDist::8         2300822     34.01%    100.00% # Number of insts commited each cycle
system.cpu.commit.numCommittedDist::overflows            0      0.00%    100.00% # Number of insts commited each cycle
system.cpu.commit.numCommittedDist::min_value            0                       # Number of insts commited each cycle
system.cpu.commit.numCommittedDist::max_value            8                       # Number of insts commited each cycle
system.cpu.commit.numCommittedDist::total      6765612                       # Number of insts commited each cycle
system.cpu.commit.instsCommitted             11753956                       # Number of instructions committed
system.cpu.commit.opsCommitted               23035098                       # Number of ops (including micro ops) committed
system.cpu.commit.memRefs                     4539665                       # Number of memory references committed
system.cpu.commit.loads                       4085077                       # Number of loads committed
system.cpu.commit.amos                              0                       # Number of atomic instructions committed
system.cpu.commit.membars                           0                       # Number of memory barriers committed
system.cpu.commit.branches                    2257293                       # Number of branches committed
system.cpu.commit.vector                            0                       # Number of committed Vector instructions.
system.cpu.commit.floating                    4483498                       # Number of committed floating point instructions.
system.cpu.commit.integer                    20468201                       # Number of committed integer instructions.
system.cpu.commit.functionCalls                 27379                       # Number of function calls committed.
system.cpu.commit.committedInstType_0::No_OpClass       134211      0.58%      0.58% # Class of committed instruction
system.cpu.commit.committedInstType_0::IntAlu     15318868     66.50%     67.08% # Class of committed instruction
system.cpu.commit.committedInstType_0::IntMult        18643      0.08%     67.17% # Class of committed instruction
system.cpu.commit.committedInstType_0::IntDiv       567325      2.46%     69.63% # Class of committed instruction
system.cpu.commit.committedInstType_0::FloatAdd       197707      0.86%     70.49% # Class of committed instruction
system.cpu.commit.committedInstType_0::FloatCmp            0      0.00%     70.49% # Class of committed instruction
system.cpu.commit.committedInstType_0::FloatCvt            0      0.00%     70.49% # Class of committed instruction
system.cpu.commit.committedInstType_0::FloatMult            0      0.00%     70.49% # Class of committed instruction
system.cpu.commit.committedInstType_0::FloatMultAcc            0      0.00%     70.49% # Class of committed instruction
system.cpu.commit.committedInstType_0::FloatDiv            0      0.00%     70.49% # Class of committed instruction
system.cpu.commit.committedInstType_0::FloatMisc            0      0.00%     70.49% # Class of committed instruction
system.cpu.commit.committedInstType_0::FloatSqrt            0      0.00%     70.49% # Class of committed instruction
system.cpu.commit.committedInstType_0::SimdAdd         2442      0.01%     70.50% # Class of committed instruction
system.cpu.commit.committedInstType_0::SimdAddAcc            0      0.00%     70.50% # Class of committed instruction
system.cpu.commit.committedInstType_0::SimdAlu       323704      1.41%     71.90% # Class of committed instruction
system.cpu.commit.committedInstType_0::SimdCmp            0      0.00%     71.90% # Class of committed instruction
system.cpu.commit.committedInstType_0::SimdCvt        11138      0.05%     71.95% # Class of committed instruction
system.cpu.commit.committedInstType_0::SimdMisc        55423      0.24%     72.19% # Class of committed instruction
system.cpu.commit.committedInstType_0::SimdMult            0      0.00%     72.19% # Class of committed instruction
system.cpu.commit.committedInstType_0::SimdMultAcc            0      0.00%     72.19% # Class of committed instruction
system.cpu.commit.committedInstType_0::SimdShift         1222      0.01%     72.20% # Class of committed instruction
system.cpu.commit.committedInstType_0::SimdShiftAcc            0      0.00%     72.20% # Class of committed instruction
system.cpu.commit.committedInstType_0::SimdDiv            0      0.00%     72.20% # Class of committed instruction
system.cpu.commit.committedInstType_0::SimdSqrt            0      0.00%     72.20% # Class of committed instruction
system.cpu.commit.committedInstType_0::SimdFloatAdd      1667728      7.24%     79.44% # Class of committed instruction
system.cpu.commit.committedInstType_0::SimdFloatAlu            0      0.00%     79.44% # Class of committed instruction
system.cpu.commit.committedInstType_0::SimdFloatCmp            0      0.00%     79.44% # Class of committed instruction
system.cpu.commit.committedInstType_0::SimdFloatCvt        98667      0.43%     79.87% # Class of committed instruction
system.cpu.commit.committedInstType_0::SimdFloatDiv        49203      0.21%     80.08% # Class of committed instruction
system.cpu.commit.committedInstType_0::SimdFloatMisc            0      0.00%     80.08% # Class of committed instruction
system.cpu.commit.committedInstType_0::SimdFloatMult        49152      0.21%     80.29% # Class of committed instruction
system.cpu.commit.committedInstType_0::SimdFloatMultAcc            0      0.00%     80.29% # Class of committed instruction
system.cpu.commit.committedInstType_0::SimdFloatSqrt            0      0.00%     80.29% # Class of committed instruction
system.cpu.commit.committedInstType_0::SimdReduceAdd            0      0.00%     80.29% # Class of committed instruction
system.cpu.commit.committedInstType_0::SimdReduceAlu            0      0.00%     80.29% # Class of committed instruction
system.cpu.commit.committedInstType_0::SimdReduceCmp            0      0.00%     80.29% # Class of committed instruction
system.cpu.commit.committedInstType_0::SimdFloatReduceAdd            0      0.00%     80.29% # Class of committed instruction
system.cpu.commit.committedInstType_0::SimdFloatReduceCmp            0      0.00%     80.29% # Class of committed instruction
system.cpu.commit.committedInstType_0::SimdAes            0      0.00%     80.29% # Class of committed instruction
system.cpu.commit.committedInstType_0::SimdAesMix            0      0.00%     80.29% # Class of committed instruction
system.cpu.commit.committedInstType_0::SimdSha1Hash            0      0.00%     80.29% # Class of committed instruction
system.cpu.commit.committedInstType_0::SimdSha1Hash2            0      0.00%     80.29% # Class of committed instruction
system.cpu.commit.committedInstType_0::SimdSha256Hash            0      0.00%     80.29% # Class of committed instruction
system.cpu.commit.committedInstType_0::SimdSha256Hash2            0      0.00%     80.29% # Class of committed instruction
system.cpu.commit.committedInstType_0::SimdShaSigma2            0      0.00%     80.29% # Class of committed instruction
system.cpu.commit.committedInstType_0::SimdShaSigma3            0      0.00%     80.29% # Class of committed instruction
system.cpu.commit.committedInstType_0::SimdPredAlu            0      0.00%     80.29% # Class of committed instruction
system.cpu.commit.committedInstType_0::MemRead      2245175      9.75%     90.04% # Class of committed instruction
system.cpu.commit.committedInstType_0::MemWrite       286837      1.25%     91.28% # Class of committed instruction
system.cpu.commit.committedInstType_0::FloatMemRead      1839902      7.99%     99.27% # Class of committed instruction
system.cpu.commit.committedInstType_0::FloatMemWrite       167751      0.73%    100.00% # Class of committed instruction
system.cpu.commit.committedInstType_0::IprAccess            0      0.00%    100.00% # Class of committed instruction
system.cpu.commit.committedInstType_0::InstPrefetch            0      0.00%    100.00% # Class of committed instruction
system.cpu.commit.committedInstType_0::total     23035098                       # Class of committed instruction
system.cpu.commit.commitEligibleSamples       2300822                       # number cycles where commit BW limit reached
system.cpu.thread0.numInsts                  11753956                       # Number of Instructions committed
system.cpu.thread0.numOps                    23035098                       # Number of Ops committed
system.cpu.thread0.numMemRefs                       0                       # Number of Memory References
system.cpu.fetch.icacheStallCycles             848271                       # Number of cycles fetch is stalled on an Icache miss
system.cpu.fetch.insts                       15963282                       # Number of instructions fetch has processed
system.cpu.fetch.branches                     3092111                       # Number of branches that fetch encountered
system.cpu.fetch.predictedBranches            2589229                       # Number of branches that fetch has predicted taken
system.cpu.fetch.cycles                       6385308                       # Number of cycles fetch has run and was not squashing or blocked
system.cpu.fetch.squashCycles                  238890                       # Number of cycles fetch has spent squashing
system.cpu.fetch.miscStallCycles                  361                       # Number of cycles fetch has spent waiting on interrupts,or bad addresses, or out of MSHRs
system.cpu.fetch.pendingTrapStallCycles          2428                       # Number of stall cycles due to pending traps
system.cpu.fetch.pendingQuiesceStallCycles            1                       # Number of stall cycles due to pending quiesce instructions
system.cpu.fetch.icacheWaitRetryStallCycles           58                       # Number of stall cycles due to full MSHR
system.cpu.fetch.cacheLines                    753502                       # Number of cache lines fetched
system.cpu.fetch.icacheSquashes                 21208                       # Number of outstanding Icache misses that were squashed
system.cpu.fetch.nisnDist::samples            7355872                       # Number of instructions fetched each cycle (Total)
system.cpu.fetch.nisnDist::mean              4.137782                       # Number of instructions fetched each cycle (Total)
system.cpu.fetch.nisnDist::stdev             3.399805                       # Number of instructions fetched each cycle (Total)
system.cpu.fetch.nisnDist::underflows               0      0.00%      0.00% # Number of instructions fetched each cycle (Total)
system.cpu.fetch.nisnDist::0                  1832749     24.92%     24.92% # Number of instructions fetched each cycle (Total)
system.cpu.fetch.nisnDist::1                    67263      0.91%     25.83% # Number of instructions fetched each cycle (Total)
system.cpu.fetch.nisnDist::2                  1842346     25.05%     50.88% # Number of instructions fetched each cycle (Total)
system.cpu.fetch.nisnDist::3                   130109      1.77%     52.64% # Number of instructions fetched each cycle (Total)
system.cpu.fetch.nisnDist::4                   163010      2.22%     54.86% # Number of instructions fetched each cycle (Total)
system.cpu.fetch.nisnDist::5                   114504      1.56%     56.42% # Number of instructions fetched each cycle (Total)
system.cpu.fetch.nisnDist::6                   182505      2.48%     58.90% # Number of instructions fetched each cycle (Total)
system.cpu.fetch.nisnDist::7                   211966      2.88%     61.78% # Number of instructions fetched each cycle (Total)
system.cpu.fetch.nisnDist::8                  2811420     38.22%    100.00% # Number of instructions fetched each cycle (Total)
system.cpu.fetch.nisnDist::overflows                0      0.00%    100.00% # Number of instructions fetched each cycle (Total)
system.cpu.fetch.nisnDist::min_value                0                       # Number of instructions fetched each cycle (Total)
system.cpu.fetch.nisnDist::max_value                8                       # Number of instructions fetched each cycle (Total)
system.cpu.fetch.nisnDist::total              7355872                       # Number of instructions fetched each cycle (Total)
system.cpu.fetch.branchRate                  0.413051                       # Number of branch fetches per cycle
system.cpu.fetch.rate                        2.132409                       # Number of inst fetches per cycle

---------- End Simulation Statistics   ----------
