
---------- Begin Simulation Statistics ----------
final_tick                                 3625297000                       # Number of ticks from beginning of simulation (restored from checkpoints and never reset)
host_inst_rate                                 161857                       # Simulator instruction rate (inst/s)
host_mem_usage                                 728936                       # Number of bytes of host memory used
host_op_rate                                   317203                       # Simulator op (including micro ops) rate (op/s)
host_seconds                                    72.62                       # Real time elapsed on the host
host_tick_rate                               49922609                       # Simulator tick rate (ticks/s)
sim_freq                                 1000000000000                       # Frequency of simulated ticks
sim_insts                                    11753748                       # Number of instructions simulated
sim_ops                                      23034729                       # Number of ops (including micro ops) simulated
sim_seconds                                  0.003625                       # Number of seconds simulated
sim_ticks                                  3625297000                       # Number of ticks simulated
system.cpu.cc_regfile_reads                  12255870                       # number of cc regfile reads
system.cpu.cc_regfile_writes                  9751114                       # number of cc regfile writes
system.cpu.committedInsts                    11753748                       # Number of Instructions Simulated
system.cpu.committedOps                      23034729                       # Number of Ops (including micro ops) Simulated
system.cpu.cpi                               0.616875                       # CPI: Cycles Per Instruction
system.cpu.cpi_total                         0.616875                       # CPI: Total CPI of All Threads
system.cpu.fp_regfile_reads                   6463827                       # number of floating regfile reads
system.cpu.fp_regfile_writes                  4332320                       # number of floating regfile writes
system.cpu.idleCycles                          129007                       # Total number of cycles that the CPU has spent unscheduled due to idling
system.cpu.iew.branchMispredicts               122016                       # Number of branch mispredicts detected at execute
system.cpu.iew.exec_branches                  2441787                       # Number of branches executed
system.cpu.iew.exec_nop                             0                       # number of nop insts executed
system.cpu.iew.exec_rate                     3.507302                       # Inst execution rate
system.cpu.iew.exec_refs                      4913554                       # number of memory reference insts executed
system.cpu.iew.exec_stores                     534595                       # Number of stores executed
system.cpu.iew.exec_swp                             0                       # number of swp insts executed
system.cpu.iew.iewBlockCycles                  473177                       # Number of cycles IEW is blocking
system.cpu.iew.iewDispLoadInsts               4682993                       # Number of dispatched load instructions
system.cpu.iew.iewDispNonSpecInsts                198                       # Number of dispatched non-speculative instructions
system.cpu.iew.iewDispSquashedInsts              9806                       # Number of squashed instructions skipped by dispatch
system.cpu.iew.iewDispStoreInsts               716898                       # Number of dispatched store instructions
system.cpu.iew.iewDispatchedInsts            27243714                       # Number of instructions dispatched to IQ
system.cpu.iew.iewExecLoadInsts               4378959                       # Number of load instructions executed
system.cpu.iew.iewExecSquashedInsts            274743                       # Number of squashed instructions skipped in execute
system.cpu.iew.iewExecutedInsts              25430029                       # Number of executed instructions
system.cpu.iew.iewIQFullEvents                    401                       # Number of times the IQ has become full, causing a stall
system.cpu.iew.iewIdleCycles                        0                       # Number of cycles IEW is idle
system.cpu.iew.iewLSQFullEvents                 68058                       # Number of times the LSQ has become full, causing a stall
system.cpu.iew.iewSquashCycles                 116749                       # Number of cycles IEW is squashing
system.cpu.iew.iewUnblockCycles                 68900                       # Number of cycles IEW is unblocking
system.cpu.iew.memOrderViolationEvents            311                       # Number of memory order violations
system.cpu.iew.predictedNotTakenIncorrect        41498                       # Number of branches that were predicted not taken incorrectly
system.cpu.iew.predictedTakenIncorrect          80518                       # Number of branches that were predicted taken incorrectly
system.cpu.iew.wb_consumers                  33969543                       # num instructions consuming a value
system.cpu.iew.wb_count                      25268250                       # cumulative count of insts written-back
system.cpu.iew.wb_fanout                     0.626534                       # average fanout of values written-back
system.cpu.iew.wb_producers                  21283078                       # num instructions producing a value
system.cpu.iew.wb_rate                       3.484990                       # insts written-back per cycle
system.cpu.iew.wb_sent                       25320519                       # cumulative count of insts sent to commit
system.cpu.int_regfile_reads                 31877951                       # number of integer regfile reads
system.cpu.int_regfile_writes                19246647                       # number of integer regfile writes
system.cpu.ipc                               1.621074                       # IPC: Instructions Per Cycle
system.cpu.ipc_total                         1.621074                       # IPC: Total IPC of All Threads
system.cpu.iq.FU_type_0::No_OpClass            165848      0.65%      0.65% # Type of FU issued
system.cpu.iq.FU_type_0::IntAlu              17465910     67.95%     68.59% # Type of FU issued
system.cpu.iq.FU_type_0::IntMult                18967      0.07%     68.67% # Type of FU issued
system.cpu.iq.FU_type_0::IntDiv                630577      2.45%     71.12% # Type of FU issued
system.cpu.iq.FU_type_0::FloatAdd              198418      0.77%     71.89% # Type of FU issued
system.cpu.iq.FU_type_0::FloatCmp                   0      0.00%     71.89% # Type of FU issued
system.cpu.iq.FU_type_0::FloatCvt                   0      0.00%     71.89% # Type of FU issued
system.cpu.iq.FU_type_0::FloatMult                  0      0.00%     71.89% # Type of FU issued
system.cpu.iq.FU_type_0::FloatMultAcc               0      0.00%     71.89% # Type of FU issued
system.cpu.iq.FU_type_0::FloatDiv                   0      0.00%     71.89% # Type of FU issued
system.cpu.iq.FU_type_0::FloatMisc                  0      0.00%     71.89% # Type of FU issued
system.cpu.iq.FU_type_0::FloatSqrt                  0      0.00%     71.89% # Type of FU issued
system.cpu.iq.FU_type_0::SimdAdd                 2446      0.01%     71.90% # Type of FU issued
system.cpu.iq.FU_type_0::SimdAddAcc                 0      0.00%     71.90% # Type of FU issued
system.cpu.iq.FU_type_0::SimdAlu               324149      1.26%     73.16% # Type of FU issued
system.cpu.iq.FU_type_0::SimdCmp                    0      0.00%     73.16% # Type of FU issued
system.cpu.iq.FU_type_0::SimdCvt                11148      0.04%     73.21% # Type of FU issued
system.cpu.iq.FU_type_0::SimdMisc               55479      0.22%     73.42% # Type of FU issued
system.cpu.iq.FU_type_0::SimdMult                   0      0.00%     73.42% # Type of FU issued
system.cpu.iq.FU_type_0::SimdMultAcc                0      0.00%     73.42% # Type of FU issued
system.cpu.iq.FU_type_0::SimdShift               1233      0.00%     73.43% # Type of FU issued
system.cpu.iq.FU_type_0::SimdShiftAcc               0      0.00%     73.43% # Type of FU issued
system.cpu.iq.FU_type_0::SimdDiv                    0      0.00%     73.43% # Type of FU issued
system.cpu.iq.FU_type_0::SimdSqrt                   0      0.00%     73.43% # Type of FU issued
system.cpu.iq.FU_type_0::SimdFloatAdd         1667728      6.49%     79.91% # Type of FU issued
system.cpu.iq.FU_type_0::SimdFloatAlu               0      0.00%     79.91% # Type of FU issued
system.cpu.iq.FU_type_0::SimdFloatCmp               0      0.00%     79.91% # Type of FU issued
system.cpu.iq.FU_type_0::SimdFloatCvt           98704      0.38%     80.30% # Type of FU issued
system.cpu.iq.FU_type_0::SimdFloatDiv           49224      0.19%     80.49% # Type of FU issued
system.cpu.iq.FU_type_0::SimdFloatMisc              0      0.00%     80.49% # Type of FU issued
system.cpu.iq.FU_type_0::SimdFloatMult          49152      0.19%     80.68% # Type of FU issued
system.cpu.iq.FU_type_0::SimdFloatMultAcc            0      0.00%     80.68% # Type of FU issued
system.cpu.iq.FU_type_0::SimdFloatSqrt              0      0.00%     80.68% # Type of FU issued
system.cpu.iq.FU_type_0::SimdReduceAdd              0      0.00%     80.68% # Type of FU issued
system.cpu.iq.FU_type_0::SimdReduceAlu              0      0.00%     80.68% # Type of FU issued
system.cpu.iq.FU_type_0::SimdReduceCmp              0      0.00%     80.68% # Type of FU issued
system.cpu.iq.FU_type_0::SimdFloatReduceAdd            0      0.00%     80.68% # Type of FU issued
system.cpu.iq.FU_type_0::SimdFloatReduceCmp            0      0.00%     80.68% # Type of FU issued
system.cpu.iq.FU_type_0::SimdAes                    0      0.00%     80.68% # Type of FU issued
system.cpu.iq.FU_type_0::SimdAesMix                 0      0.00%     80.68% # Type of FU issued
system.cpu.iq.FU_type_0::SimdSha1Hash               0      0.00%     80.68% # Type of FU issued
system.cpu.iq.FU_type_0::SimdSha1Hash2              0      0.00%     80.68% # Type of FU issued
system.cpu.iq.FU_type_0::SimdSha256Hash             0      0.00%     80.68% # Type of FU issued
system.cpu.iq.FU_type_0::SimdSha256Hash2            0      0.00%     80.68% # Type of FU issued
system.cpu.iq.FU_type_0::SimdShaSigma2              0      0.00%     80.68% # Type of FU issued
system.cpu.iq.FU_type_0::SimdShaSigma3              0      0.00%     80.68% # Type of FU issued
system.cpu.iq.FU_type_0::SimdPredAlu                0      0.00%     80.68% # Type of FU issued
system.cpu.iq.FU_type_0::MemRead              2550086      9.92%     90.60% # Type of FU issued
system.cpu.iq.FU_type_0::MemWrite              370458      1.44%     92.04% # Type of FU issued
system.cpu.iq.FU_type_0::FloatMemRead         1866276      7.26%     99.30% # Type of FU issued
system.cpu.iq.FU_type_0::FloatMemWrite         178969      0.70%    100.00% # Type of FU issued
system.cpu.iq.FU_type_0::IprAccess                  0      0.00%    100.00% # Type of FU issued
system.cpu.iq.FU_type_0::InstPrefetch               0      0.00%    100.00% # Type of FU issued
system.cpu.iq.FU_type_0::total               25704772                       # Type of FU issued
system.cpu.iq.fp_alu_accesses                 4606163                       # Number of floating point alu accesses
system.cpu.iq.fp_inst_queue_reads             9129847                       # Number of floating instruction queue reads
system.cpu.iq.fp_inst_queue_wakeup_accesses      4510608                       # Number of floating instruction queue wakeup accesses
system.cpu.iq.fp_inst_queue_writes            5034394                       # Number of floating instruction queue writes
system.cpu.iq.fu_busy_cnt                      175846                       # FU busy when requested
system.cpu.iq.fu_busy_rate                   0.006841                       # FU busy rate (busy events/executed inst)
system.cpu.iq.fu_full::No_OpClass                   0      0.00%      0.00% # attempts to use FU when none available
system.cpu.iq.fu_full::IntAlu                   79989     45.49%     45.49% # attempts to use FU when none available
system.cpu.iq.fu_full::IntMult                      0      0.00%     45.49% # attempts to use FU when none available
system.cpu.iq.fu_full::IntDiv                       0      0.00%     45.49% # attempts to use FU when none available
system.cpu.iq.fu_full::FloatAdd                     0      0.00%     45.49% # attempts to use FU when none available
system.cpu.iq.fu_full::FloatCmp                     0      0.00%     45.49% # attempts to use FU when none available
system.cpu.iq.fu_full::FloatCvt                     0      0.00%     45.49% # attempts to use FU when none available
system.cpu.iq.fu_full::FloatMult                    0      0.00%     45.49% # attempts to use FU when none available
system.cpu.iq.fu_full::FloatMultAcc                 0      0.00%     45.49% # attempts to use FU when none available
system.cpu.iq.fu_full::FloatDiv                     0      0.00%     45.49% # attempts to use FU when none available
system.cpu.iq.fu_full::FloatMisc                    0      0.00%     45.49% # attempts to use FU when none available
system.cpu.iq.fu_full::FloatSqrt                    0      0.00%     45.49% # attempts to use FU when none available
system.cpu.iq.fu_full::SimdAdd                      0      0.00%     45.49% # attempts to use FU when none available
system.cpu.iq.fu_full::SimdAddAcc                   0      0.00%     45.49% # attempts to use FU when none available
system.cpu.iq.fu_full::SimdAlu                    282      0.16%     45.65% # attempts to use FU when none available
system.cpu.iq.fu_full::SimdCmp                      0      0.00%     45.65% # attempts to use FU when none available
system.cpu.iq.fu_full::SimdCvt                     69      0.04%     45.69% # attempts to use FU when none available
system.cpu.iq.fu_full::SimdMisc                    91      0.05%     45.74% # attempts to use FU when none available
system.cpu.iq.fu_full::SimdMult                     0      0.00%     45.74% # attempts to use FU when none available
system.cpu.iq.fu_full::SimdMultAcc                  0      0.00%     45.74% # attempts to use FU when none available
system.cpu.iq.fu_full::SimdShift                    0      0.00%     45.74% # attempts to use FU when none available
system.cpu.iq.fu_full::SimdShiftAcc                 0      0.00%     45.74% # attempts to use FU when none available
system.cpu.iq.fu_full::SimdDiv                      0      0.00%     45.74% # attempts to use FU when none available
system.cpu.iq.fu_full::SimdSqrt                     0      0.00%     45.74% # attempts to use FU when none available
system.cpu.iq.fu_full::SimdFloatAdd                 0      0.00%     45.74% # attempts to use FU when none available
system.cpu.iq.fu_full::SimdFloatAlu                 0      0.00%     45.74% # attempts to use FU when none available
system.cpu.iq.fu_full::SimdFloatCmp                 0      0.00%     45.74% # attempts to use FU when none available
system.cpu.iq.fu_full::SimdFloatCvt                 0      0.00%     45.74% # attempts to use FU when none available
system.cpu.iq.fu_full::SimdFloatDiv                 0      0.00%     45.74% # attempts to use FU when none available
system.cpu.iq.fu_full::SimdFloatMisc                0      0.00%     45.74% # attempts to use FU when none available
system.cpu.iq.fu_full::SimdFloatMult                0      0.00%     45.74% # attempts to use FU when none available
system.cpu.iq.fu_full::SimdFloatMultAcc             0      0.00%     45.74% # attempts to use FU when none available
system.cpu.iq.fu_full::SimdFloatSqrt                0      0.00%     45.74% # attempts to use FU when none available
system.cpu.iq.fu_full::SimdReduceAdd                0      0.00%     45.74% # attempts to use FU when none available
system.cpu.iq.fu_full::SimdReduceAlu                0      0.00%     45.74% # attempts to use FU when none available
system.cpu.iq.fu_full::SimdReduceCmp                0      0.00%     45.74% # attempts to use FU when none available
system.cpu.iq.fu_full::SimdFloatReduceAdd            0      0.00%     45.74% # attempts to use FU when none available
system.cpu.iq.fu_full::SimdFloatReduceCmp            0      0.00%     45.74% # attempts to use FU when none available
system.cpu.iq.fu_full::SimdAes                      0      0.00%     45.74% # attempts to use FU when none available
system.cpu.iq.fu_full::SimdAesMix                   0      0.00%     45.74% # attempts to use FU when none available
system.cpu.iq.fu_full::SimdSha1Hash                 0      0.00%     45.74% # attempts to use FU when none available
system.cpu.iq.fu_full::SimdSha1Hash2                0      0.00%     45.74% # attempts to use FU when none available
system.cpu.iq.fu_full::SimdSha256Hash               0      0.00%     45.74% # attempts to use FU when none available
system.cpu.iq.fu_full::SimdSha256Hash2              0      0.00%     45.74% # attempts to use FU when none available
system.cpu.iq.fu_full::SimdShaSigma2                0      0.00%     45.74% # attempts to use FU when none available
system.cpu.iq.fu_full::SimdShaSigma3                0      0.00%     45.74% # attempts to use FU when none available
system.cpu.iq.fu_full::SimdPredAlu                  0      0.00%     45.74% # attempts to use FU when none available
system.cpu.iq.fu_full::MemRead                  10779      6.13%     51.87% # attempts to use FU when none available
system.cpu.iq.fu_full::MemWrite                  1326      0.75%     52.62% # attempts to use FU when none available
system.cpu.iq.fu_full::FloatMemRead             79714     45.33%     97.96% # attempts to use FU when none available
system.cpu.iq.fu_full::FloatMemWrite             3596      2.04%    100.00% # attempts to use FU when none available
system.cpu.iq.fu_full::IprAccess                    0      0.00%    100.00% # attempts to use FU when none available
system.cpu.iq.fu_full::InstPrefetch                 0      0.00%    100.00% # attempts to use FU when none available
system.cpu.iq.int_alu_accesses               21108607                       # Number of integer alu accesses
system.cpu.iq.int_inst_queue_reads           49587189                       # Number of integer instruction queue reads
system.cpu.iq.int_inst_queue_wakeup_accesses     20757642                       # Number of integer instruction queue wakeup accesses
system.cpu.iq.int_inst_queue_writes          26418576                       # Number of integer instruction queue writes
system.cpu.iq.iqInstsAdded                   27241466                       # Number of instructions added to the IQ (excludes non-spec)
system.cpu.iq.iqInstsIssued                  25704772                       # Number of instructions issued
system.cpu.iq.iqNonSpecInstsAdded                2248                       # Number of non-speculative instructions added to the IQ
system.cpu.iq.iqSquashedInstsExamined         4208979                       # Number of squashed instructions iterated over during squash; mainly for profiling
system.cpu.iq.iqSquashedInstsIssued             10058                       # Number of squashed instructions issued
system.cpu.iq.iqSquashedNonSpecRemoved           2049                       # Number of squashed non-spec instructions that were removed
system.cpu.iq.iqSquashedOperandsExamined      6264205                       # Number of squashed operands that are examined and possibly removed from graph
system.cpu.iq.issued_per_cycle::samples       7121588                       # Number of insts issued each cycle
system.cpu.iq.issued_per_cycle::mean         3.609416                       # Number of insts issued each cycle
system.cpu.iq.issued_per_cycle::stdev        2.335015                       # Number of insts issued each cycle
system.cpu.iq.issued_per_cycle::underflows            0      0.00%      0.00% # Number of insts issued each cycle
system.cpu.iq.issued_per_cycle::0             1325001     18.61%     18.61% # Number of insts issued each cycle
system.cpu.iq.issued_per_cycle::1              338747      4.76%     23.36% # Number of insts issued each cycle
system.cpu.iq.issued_per_cycle::2              464524      6.52%     29.88% # Number of insts issued each cycle
system.cpu.iq.issued_per_cycle::3              940518     13.21%     43.09% # Number of insts issued each cycle
system.cpu.iq.issued_per_cycle::4             1187002     16.67%     59.76% # Number of insts issued each cycle
system.cpu.iq.issued_per_cycle::5             1241883     17.44%     77.20% # Number of insts issued each cycle
system.cpu.iq.issued_per_cycle::6              988354     13.88%     91.08% # Number of insts issued each cycle
system.cpu.iq.issued_per_cycle::7              356596      5.01%     96.08% # Number of insts issued each cycle
system.cpu.iq.issued_per_cycle::8              278963      3.92%    100.00% # Number of insts issued each cycle
system.cpu.iq.issued_per_cycle::overflows            0      0.00%    100.00% # Number of insts issued each cycle
system.cpu.iq.issued_per_cycle::min_value            0                       # Number of insts issued each cycle
system.cpu.iq.issued_per_cycle::max_value            8                       # Number of insts issued each cycle
system.cpu.iq.issued_per_cycle::total         7121588                       # Number of insts issued each cycle
system.cpu.iq.rate                           3.545195                       # Inst issue rate
system.cpu.iq.vec_alu_accesses                      0                       # Number of vector alu accesses
system.cpu.iq.vec_inst_queue_reads                  0                       # Number of vector instruction queue reads
system.cpu.iq.vec_inst_queue_wakeup_accesses            0                       # Number of vector instruction queue wakeup accesses
system.cpu.iq.vec_inst_queue_writes                 0                       # Number of vector instruction queue writes
system.cpu.memDep0.conflictingLoads            282710                       # Number of conflicting loads.
system.cpu.memDep0.conflictingStores           236214                       # Number of conflicting stores.
system.cpu.memDep0.insertedLoads              4682993                       # Number of loads inserted to the mem dependence unit.
system.cpu.memDep0.insertedStores              716898                       # Number of stores inserted to the mem dependence unit.
system.cpu.misc_regfile_reads                 9801185                       # number of misc regfile reads
system.cpu.numCycles                          7250595                       # number of cpu cycles simulated
system.cpu.numWorkItemsCompleted                    0                       # number of work items this cpu completed
system.cpu.numWorkItemsStarted                      0                       # number of work items this cpu started
system.cpu.timesIdled                            1136                       # Number of times that the entire CPU went into an idle state and unscheduled itself
system.cpu.workload.numSyscalls                   163                       # Number of system calls
system.membus.snoop_filter.hit_multi_requests            0                       # Number of requests hitting in the snoop filter with multiple (>1) holders of the requested data.
system.membus.snoop_filter.hit_multi_snoops            0                       # Number of snoops hitting in the snoop filter with multiple (>1) holders of the requested data.
system.membus.snoop_filter.hit_single_requests           23                       # Number of requests hitting in the snoop filter with a single holder of the requested data.
system.membus.snoop_filter.hit_single_snoops            0                       # Number of snoops hitting in the snoop filter with a single holder of the requested data.
system.membus.snoop_filter.tot_requests          4728                       # Total number of requests made to the snoop filter.
system.membus.snoop_filter.tot_snoops               0                       # Total number of snoops made to the snoop filter.
system.tol2bus.snoop_filter.hit_multi_requests          106                       # Number of requests hitting in the snoop filter with multiple (>1) holders of the requested data.
system.tol2bus.snoop_filter.hit_multi_snoops            0                       # Number of snoops hitting in the snoop filter with multiple (>1) holders of the requested data.
system.tol2bus.snoop_filter.hit_single_requests        72083                       # Number of requests hitting in the snoop filter with a single holder of the requested data.
system.tol2bus.snoop_filter.hit_single_snoops           14                       # Number of snoops hitting in the snoop filter with a single holder of the requested data.
system.tol2bus.snoop_filter.tot_requests       146205                       # Total number of requests made to the snoop filter.
system.tol2bus.snoop_filter.tot_snoops             14                       # Total number of snoops made to the snoop filter.
system.membus.trans_dist::ReadResp               2049                       # Transaction distribution
system.membus.trans_dist::WritebackDirty            4                       # Transaction distribution
system.membus.trans_dist::CleanEvict               19                       # Transaction distribution
system.membus.trans_dist::ReadExReq              2656                       # Transaction distribution
system.membus.trans_dist::ReadExResp             2656                       # Transaction distribution
system.membus.trans_dist::ReadSharedReq          2049                       # Transaction distribution
system.membus.pkt_count_system.l2.mem_side_port::system.mem_ctrls.port         9433                       # Packet count per connected requestor and responder (bytes)
system.membus.pkt_count_system.l2.mem_side_port::total         9433                       # Packet count per connected requestor and responder (bytes)
system.membus.pkt_count::total                   9433                       # Packet count per connected requestor and responder (bytes)
system.membus.pkt_size_system.l2.mem_side_port::system.mem_ctrls.port       301376                       # Cumulative packet size per connected requestor and responder (bytes)
system.membus.pkt_size_system.l2.mem_side_port::total       301376                       # Cumulative packet size per connected requestor and responder (bytes)
system.membus.pkt_size::total                  301376                       # Cumulative packet size per connected requestor and responder (bytes)
system.membus.snoops                                0                       # Total snoops (count)
system.membus.snoopTraffic                          0                       # Total snoop traffic (bytes)
system.membus.snoop_fanout::samples              4705                       # Request fanout histogram
system.membus.snoop_fanout::mean                    0                       # Request fanout histogram
system.membus.snoop_fanout::stdev                   0                       # Request fanout histogram
system.membus.snoop_fanout::underflows              0      0.00%      0.00% # Request fanout histogram
system.membus.snoop_fanout::0                    4705    100.00%    100.00% # Request fanout histogram
system.membus.snoop_fanout::1                       0      0.00%    100.00% # Request fanout histogram
system.membus.snoop_fanout::overflows               0      0.00%    100.00% # Request fanout histogram
system.membus.snoop_fanout::min_value               0                       # Request fanout histogram
system.membus.snoop_fanout::max_value               0                       # Request fanout histogram
system.membus.snoop_fanout::total                4705                       # Request fanout histogram
system.membus.reqLayer2.occupancy             5752500                       # Layer occupancy (ticks)
system.membus.reqLayer2.utilization               0.2                       # Layer utilization (%)
system.membus.respLayer1.occupancy           24924500                       # Layer occupancy (ticks)
system.membus.respLayer1.utilization              0.7                       # Layer utilization (%)
system.membus.power_state.pwrStateResidencyTicks::UNDEFINED   3625297000                       # Cumulative time (in ticks) in various power states
system.tol2bus.trans_dist::ReadResp             67037                       # Transaction distribution
system.tol2bus.trans_dist::WritebackDirty        67995                       # Transaction distribution
system.tol2bus.trans_dist::WritebackClean          879                       # Transaction distribution
system.tol2bus.trans_dist::CleanEvict            3245                       # Transaction distribution
system.tol2bus.trans_dist::ReadExReq             7085                       # Transaction distribution
system.tol2bus.trans_dist::ReadExResp            7085                       # Transaction distribution
system.tol2bus.trans_dist::ReadCleanReq          1896                       # Transaction distribution
system.tol2bus.trans_dist::ReadSharedReq        65142                       # Transaction distribution
system.tol2bus.pkt_count_system.cpu.icache.mem_side_port::system.l2.cpu_side_port         4668                       # Packet count per connected requestor and responder (bytes)
system.tol2bus.pkt_count_system.cpu.dcache.mem_side_port::system.l2.cpu_side_port       215657                       # Packet count per connected requestor and responder (bytes)
system.tol2bus.pkt_count::total                220325                       # Packet count per connected requestor and responder (bytes)
system.tol2bus.pkt_size_system.cpu.icache.mem_side_port::system.l2.cpu_side_port       177408                       # Cumulative packet size per connected requestor and responder (bytes)
system.tol2bus.pkt_size_system.cpu.dcache.mem_side_port::system.l2.cpu_side_port      8973952                       # Cumulative packet size per connected requestor and responder (bytes)
system.tol2bus.pkt_size::total                9151360                       # Cumulative packet size per connected requestor and responder (bytes)
system.tol2bus.snoops                              39                       # Total snoops (count)
system.tol2bus.snoopTraffic                       384                       # Total snoop traffic (bytes)
system.tol2bus.snoop_fanout::samples            74160                       # Request fanout histogram
system.tol2bus.snoop_fanout::mean            0.001632                       # Request fanout histogram
system.tol2bus.snoop_fanout::stdev           0.040360                       # Request fanout histogram
system.tol2bus.snoop_fanout::underflows             0      0.00%      0.00% # Request fanout histogram
system.tol2bus.snoop_fanout::0                  74039     99.84%     99.84% # Request fanout histogram
system.tol2bus.snoop_fanout::1                    121      0.16%    100.00% # Request fanout histogram
system.tol2bus.snoop_fanout::2                      0      0.00%    100.00% # Request fanout histogram
system.tol2bus.snoop_fanout::3                      0      0.00%    100.00% # Request fanout histogram
system.tol2bus.snoop_fanout::4                      0      0.00%    100.00% # Request fanout histogram
system.tol2bus.snoop_fanout::overflows              0      0.00%    100.00% # Request fanout histogram
system.tol2bus.snoop_fanout::min_value              0                       # Request fanout histogram
system.tol2bus.snoop_fanout::max_value              1                       # Request fanout histogram
system.tol2bus.snoop_fanout::total              74160                       # Request fanout histogram
system.tol2bus.reqLayer0.occupancy          141972500                       # Layer occupancy (ticks)
system.tol2bus.reqLayer0.utilization              3.9                       # Layer utilization (%)
system.tol2bus.respLayer1.occupancy         108340999                       # Layer occupancy (ticks)
system.tol2bus.respLayer1.utilization             3.0                       # Layer utilization (%)
system.tol2bus.respLayer0.occupancy           2842999                       # Layer occupancy (ticks)
system.tol2bus.respLayer0.utilization             0.1                       # Layer utilization (%)
system.tol2bus.power_state.pwrStateResidencyTicks::UNDEFINED   3625297000                       # Cumulative time (in ticks) in various power states
system.voltage_domain.voltage                       1                       # Voltage in Volts
system.clk_domain.clock                          1000                       # Clock period in ticks
system.l2.demand_hits::.cpu.inst                   98                       # number of demand (read+write) hits
system.l2.demand_hits::.cpu.data                69316                       # number of demand (read+write) hits
system.l2.demand_hits::total                    69414                       # number of demand (read+write) hits
system.l2.overall_hits::.cpu.inst                  98                       # number of overall hits
system.l2.overall_hits::.cpu.data               69316                       # number of overall hits
system.l2.overall_hits::total                   69414                       # number of overall hits
system.l2.demand_misses::.cpu.inst               1796                       # number of demand (read+write) misses
system.l2.demand_misses::.cpu.data               2911                       # number of demand (read+write) misses
system.l2.demand_misses::total                   4707                       # number of demand (read+write) misses
system.l2.overall_misses::.cpu.inst              1796                       # number of overall misses
system.l2.overall_misses::.cpu.data              2911                       # number of overall misses
system.l2.overall_misses::total                  4707                       # number of overall misses
system.l2.demand_miss_latency::.cpu.inst    141559000                       # number of demand (read+write) miss cycles
system.l2.demand_miss_latency::.cpu.data    223260500                       # number of demand (read+write) miss cycles
system.l2.demand_miss_latency::total        364819500                       # number of demand (read+write) miss cycles
system.l2.overall_miss_latency::.cpu.inst    141559000                       # number of overall miss cycles
system.l2.overall_miss_latency::.cpu.data    223260500                       # number of overall miss cycles
system.l2.overall_miss_latency::total       364819500                       # number of overall miss cycles
system.l2.demand_accesses::.cpu.inst             1894                       # number of demand (read+write) accesses
system.l2.demand_accesses::.cpu.data            72227                       # number of demand (read+write) accesses
system.l2.demand_accesses::total                74121                       # number of demand (read+write) accesses
system.l2.overall_accesses::.cpu.inst            1894                       # number of overall (read+write) accesses
system.l2.overall_accesses::.cpu.data           72227                       # number of overall (read+write) accesses
system.l2.overall_accesses::total               74121                       # number of overall (read+write) accesses
system.l2.demand_miss_rate::.cpu.inst        0.948258                       # miss rate for demand accesses
system.l2.demand_miss_rate::.cpu.data        0.040303                       # miss rate for demand accesses
system.l2.demand_miss_rate::total            0.063504                       # miss rate for demand accesses
system.l2.overall_miss_rate::.cpu.inst       0.948258                       # miss rate for overall accesses
system.l2.overall_miss_rate::.cpu.data       0.040303                       # miss rate for overall accesses
system.l2.overall_miss_rate::total           0.063504                       # miss rate for overall accesses
system.l2.demand_avg_miss_latency::.cpu.inst 78819.042316                       # average overall miss latency
system.l2.demand_avg_miss_latency::.cpu.data 76695.465476                       # average overall miss latency
system.l2.demand_avg_miss_latency::total 77505.736138                       # average overall miss latency
system.l2.overall_avg_miss_latency::.cpu.inst 78819.042316                       # average overall miss latency
system.l2.overall_avg_miss_latency::.cpu.data 76695.465476                       # average overall miss latency
system.l2.overall_avg_miss_latency::total 77505.736138                       # average overall miss latency
system.l2.blocked_cycles::no_mshrs                  0                       # number of cycles access was blocked
system.l2.blocked_cycles::no_targets                0                       # number of cycles access was blocked
system.l2.blocked::no_mshrs                         0                       # number of cycles access was blocked
system.l2.blocked::no_targets                       0                       # number of cycles access was blocked
system.l2.avg_blocked_cycles::no_mshrs            nan                       # average number of cycles each access was blocked
system.l2.avg_blocked_cycles::no_targets          nan                       # average number of cycles each access was blocked
system.l2.writebacks::.writebacks                   4                       # number of writebacks
system.l2.writebacks::total                         4                       # number of writebacks
system.l2.demand_mshr_hits::.cpu.data               1                       # number of demand (read+write) MSHR hits
system.l2.demand_mshr_hits::total                   1                       # number of demand (read+write) MSHR hits
system.l2.overall_mshr_hits::.cpu.data              1                       # number of overall MSHR hits
system.l2.overall_mshr_hits::total                  1                       # number of overall MSHR hits
system.l2.demand_mshr_misses::.cpu.inst          1796                       # number of demand (read+write) MSHR misses
system.l2.demand_mshr_misses::.cpu.data          2910                       # number of demand (read+write) MSHR misses
system.l2.demand_mshr_misses::total              4706                       # number of demand (read+write) MSHR misses
system.l2.overall_mshr_misses::.cpu.inst         1796                       # number of overall MSHR misses
system.l2.overall_mshr_misses::.cpu.data         2910                       # number of overall MSHR misses
system.l2.overall_mshr_misses::total             4706                       # number of overall MSHR misses
system.l2.demand_mshr_miss_latency::.cpu.inst    123609000                       # number of demand (read+write) MSHR miss cycles
system.l2.demand_mshr_miss_latency::.cpu.data    194101000                       # number of demand (read+write) MSHR miss cycles
system.l2.demand_mshr_miss_latency::total    317710000                       # number of demand (read+write) MSHR miss cycles
system.l2.overall_mshr_miss_latency::.cpu.inst    123609000                       # number of overall MSHR miss cycles
system.l2.overall_mshr_miss_latency::.cpu.data    194101000                       # number of overall MSHR miss cycles
system.l2.overall_mshr_miss_latency::total    317710000                       # number of overall MSHR miss cycles
system.l2.demand_mshr_miss_rate::.cpu.inst     0.948258                       # mshr miss rate for demand accesses
system.l2.demand_mshr_miss_rate::.cpu.data     0.040290                       # mshr miss rate for demand accesses
system.l2.demand_mshr_miss_rate::total       0.063491                       # mshr miss rate for demand accesses
system.l2.overall_mshr_miss_rate::.cpu.inst     0.948258                       # mshr miss rate for overall accesses
system.l2.overall_mshr_miss_rate::.cpu.data     0.040290                       # mshr miss rate for overall accesses
system.l2.overall_mshr_miss_rate::total      0.063491                       # mshr miss rate for overall accesses
system.l2.demand_avg_mshr_miss_latency::.cpu.inst 68824.610245                       # average overall mshr miss latency
system.l2.demand_avg_mshr_miss_latency::.cpu.data 66701.374570                       # average overall mshr miss latency
system.l2.demand_avg_mshr_miss_latency::total 67511.687208                       # average overall mshr miss latency
system.l2.overall_avg_mshr_miss_latency::.cpu.inst 68824.610245                       # average overall mshr miss latency
system.l2.overall_avg_mshr_miss_latency::.cpu.data 66701.374570                       # average overall mshr miss latency
system.l2.overall_avg_mshr_miss_latency::total 67511.687208                       # average overall mshr miss latency
system.l2.replacements                             37                       # number of replacements
system.l2.WritebackDirty_hits::.writebacks        67991                       # number of WritebackDirty hits
system.l2.WritebackDirty_hits::total            67991                       # number of WritebackDirty hits
system.l2.WritebackDirty_accesses::.writebacks        67991                       # number of WritebackDirty accesses(hits+misses)
system.l2.WritebackDirty_accesses::total        67991                       # number of WritebackDirty accesses(hits+misses)
system.l2.WritebackClean_hits::.writebacks          878                       # number of WritebackClean hits
system.l2.WritebackClean_hits::total              878                       # number of WritebackClean hits
system.l2.WritebackClean_accesses::.writebacks          878                       # number of WritebackClean accesses(hits+misses)
system.l2.WritebackClean_accesses::total          878                       # number of WritebackClean accesses(hits+misses)
system.l2.ReadExReq_hits::.cpu.data              4429                       # number of ReadExReq hits
system.l2.ReadExReq_hits::total                  4429                       # number of ReadExReq hits
system.l2.ReadExReq_misses::.cpu.data            2656                       # number of ReadExReq misses
system.l2.ReadExReq_misses::total                2656                       # number of ReadExReq misses
system.l2.ReadExReq_miss_latency::.cpu.data    200385500                       # number of ReadExReq miss cycles
system.l2.ReadExReq_miss_latency::total     200385500                       # number of ReadExReq miss cycles
system.l2.ReadExReq_accesses::.cpu.data          7085                       # number of ReadExReq accesses(hits+misses)
system.l2.ReadExReq_accesses::total              7085                       # number of ReadExReq accesses(hits+misses)
system.l2.ReadExReq_miss_rate::.cpu.data     0.374876                       # miss rate for ReadExReq accesses
system.l2.ReadExReq_miss_rate::total         0.374876                       # miss rate for ReadExReq accesses
system.l2.ReadExReq_avg_miss_latency::.cpu.data 75446.347892                       # average ReadExReq miss latency
system.l2.ReadExReq_avg_miss_latency::total 75446.347892                       # average ReadExReq miss latency
system.l2.ReadExReq_mshr_misses::.cpu.data         2656                       # number of ReadExReq MSHR misses
system.l2.ReadExReq_mshr_misses::total           2656                       # number of ReadExReq MSHR misses
system.l2.ReadExReq_mshr_miss_latency::.cpu.data    173825500                       # number of ReadExReq MSHR miss cycles
system.l2.ReadExReq_mshr_miss_latency::total    173825500                       # number of ReadExReq MSHR miss cycles
system.l2.ReadExReq_mshr_miss_rate::.cpu.data     0.374876                       # mshr miss rate for ReadExReq accesses
system.l2.ReadExReq_mshr_miss_rate::total     0.374876                       # mshr miss rate for ReadExReq accesses
system.l2.ReadExReq_avg_mshr_miss_latency::.cpu.data 65446.347892                       # average ReadExReq mshr miss latency
system.l2.ReadExReq_avg_mshr_miss_latency::total 65446.347892                       # average ReadExReq mshr miss latency
system.l2.ReadCleanReq_hits::.cpu.inst             98                       # number of ReadCleanReq hits
system.l2.ReadCleanReq_hits::total                 98                       # number of ReadCleanReq hits
system.l2.ReadCleanReq_misses::.cpu.inst         1796                       # number of ReadCleanReq misses
system.l2.ReadCleanReq_misses::total             1796                       # number of ReadCleanReq misses
system.l2.ReadCleanReq_miss_latency::.cpu.inst    141559000                       # number of ReadCleanReq miss cycles
system.l2.ReadCleanReq_miss_latency::total    141559000                       # number of ReadCleanReq miss cycles
system.l2.ReadCleanReq_accesses::.cpu.inst         1894                       # number of ReadCleanReq accesses(hits+misses)
system.l2.ReadCleanReq_accesses::total           1894                       # number of ReadCleanReq accesses(hits+misses)
system.l2.ReadCleanReq_miss_rate::.cpu.inst     0.948258                       # miss rate for ReadCleanReq accesses
system.l2.ReadCleanReq_miss_rate::total      0.948258                       # miss rate for ReadCleanReq accesses
system.l2.ReadCleanReq_avg_miss_latency::.cpu.inst 78819.042316                       # average ReadCleanReq miss latency
system.l2.ReadCleanReq_avg_miss_latency::total 78819.042316                       # average ReadCleanReq miss latency
system.l2.ReadCleanReq_mshr_misses::.cpu.inst         1796                       # number of ReadCleanReq MSHR misses
system.l2.ReadCleanReq_mshr_misses::total         1796                       # number of ReadCleanReq MSHR misses
system.l2.ReadCleanReq_mshr_miss_latency::.cpu.inst    123609000                       # number of ReadCleanReq MSHR miss cycles
system.l2.ReadCleanReq_mshr_miss_latency::total    123609000                       # number of ReadCleanReq MSHR miss cycles
system.l2.ReadCleanReq_mshr_miss_rate::.cpu.inst     0.948258                       # mshr miss rate for ReadCleanReq accesses
system.l2.ReadCleanReq_mshr_miss_rate::total     0.948258                       # mshr miss rate for ReadCleanReq accesses
system.l2.ReadCleanReq_avg_mshr_miss_latency::.cpu.inst 68824.610245                       # average ReadCleanReq mshr miss latency
system.l2.ReadCleanReq_avg_mshr_miss_latency::total 68824.610245                       # average ReadCleanReq mshr miss latency
system.l2.ReadSharedReq_hits::.cpu.data         64887                       # number of ReadSharedReq hits
system.l2.ReadSharedReq_hits::total             64887                       # number of ReadSharedReq hits
system.l2.ReadSharedReq_misses::.cpu.data          255                       # number of ReadSharedReq misses
system.l2.ReadSharedReq_misses::total             255                       # number of ReadSharedReq misses
system.l2.ReadSharedReq_miss_latency::.cpu.data     22875000                       # number of ReadSharedReq miss cycles
system.l2.ReadSharedReq_miss_latency::total     22875000                       # number of ReadSharedReq miss cycles
system.l2.ReadSharedReq_accesses::.cpu.data        65142                       # number of ReadSharedReq accesses(hits+misses)
system.l2.ReadSharedReq_accesses::total         65142                       # number of ReadSharedReq accesses(hits+misses)
system.l2.ReadSharedReq_miss_rate::.cpu.data     0.003915                       # miss rate for ReadSharedReq accesses
system.l2.ReadSharedReq_miss_rate::total     0.003915                       # miss rate for ReadSharedReq accesses
system.l2.ReadSharedReq_avg_miss_latency::.cpu.data 89705.882353                       # average ReadSharedReq miss latency
system.l2.ReadSharedReq_avg_miss_latency::total 89705.882353                       # average ReadSharedReq miss latency
system.l2.ReadSharedReq_mshr_hits::.cpu.data            1                       # number of ReadSharedReq MSHR hits
system.l2.ReadSharedReq_mshr_hits::total            1                       # number of ReadSharedReq MSHR hits
system.l2.ReadSharedReq_mshr_misses::.cpu.data          254                       # number of ReadSharedReq MSHR misses
system.l2.ReadSharedReq_mshr_misses::total          254                       # number of ReadSharedReq MSHR misses
system.l2.ReadSharedReq_mshr_miss_latency::.cpu.data     20275500                       # number of ReadSharedReq MSHR miss cycles
system.l2.ReadSharedReq_mshr_miss_latency::total     20275500                       # number of ReadSharedReq MSHR miss cycles
system.l2.ReadSharedReq_mshr_miss_rate::.cpu.data     0.003899                       # mshr miss rate for ReadSharedReq accesses
system.l2.ReadSharedReq_mshr_miss_rate::total     0.003899                       # mshr miss rate for ReadSharedReq accesses
system.l2.ReadSharedReq_avg_mshr_miss_latency::.cpu.data 79824.803150                       # average ReadSharedReq mshr miss latency
system.l2.ReadSharedReq_avg_mshr_miss_latency::total 79824.803150                       # average ReadSharedReq mshr miss latency
system.l2.power_state.pwrStateResidencyTicks::UNDEFINED   3625297000                       # Cumulative time (in ticks) in various power states
system.l2.tags.tagsinuse                  4096.186641                       # Cycle average of tags in use
system.l2.tags.total_refs                      146097                       # Total number of references to valid blocks.
system.l2.tags.sampled_refs                      4713                       # Sample count of references to valid blocks.
system.l2.tags.avg_refs                     30.998727                       # Average number of references to valid blocks.
system.l2.tags.warmup_cycle                     77000                       # Cycle when the warmup percentage was hit.
system.l2.tags.occ_blocks::.writebacks       5.037839                       # Average occupied blocks per requestor
system.l2.tags.occ_blocks::.cpu.inst      1593.467325                       # Average occupied blocks per requestor
system.l2.tags.occ_blocks::.cpu.data      2497.681478                       # Average occupied blocks per requestor
system.l2.tags.occ_percent::.writebacks      0.000307                       # Average percentage of cache occupancy
system.l2.tags.occ_percent::.cpu.inst        0.097258                       # Average percentage of cache occupancy
system.l2.tags.occ_percent::.cpu.data        0.152446                       # Average percentage of cache occupancy
system.l2.tags.occ_percent::total            0.250011                       # Average percentage of cache occupancy
system.l2.tags.occ_task_id_blocks::1024          4676                       # Occupied blocks per task id
system.l2.tags.age_task_id_blocks_1024::0           84                       # Occupied blocks per task id
system.l2.tags.age_task_id_blocks_1024::3         4592                       # Occupied blocks per task id
system.l2.tags.occ_task_id_percent::1024     0.285400                       # Percentage of cache occupancy per task id
system.l2.tags.tag_accesses                    296911                       # Number of tag accesses
system.l2.tags.data_accesses                   296911                       # Number of data accesses
system.l2.tags.power_state.pwrStateResidencyTicks::UNDEFINED   3625297000                       # Cumulative time (in ticks) in various power states
system.cpu_voltage_domain.voltage                   1                       # Voltage in Volts
system.mem_ctrls.avgPriority_.writebacks::samples         4.00                       # Average QoS priority value for accepted requests
system.mem_ctrls.avgPriority_.cpu.inst::samples      1795.00                       # Average QoS priority value for accepted requests
system.mem_ctrls.avgPriority_.cpu.data::samples      2910.00                       # Average QoS priority value for accepted requests
system.mem_ctrls.priorityMinLatency      0.000000018750                       # per QoS priority minimum request to response latency (s)
system.mem_ctrls.priorityMaxLatency      0.000000580000                       # per QoS priority maximum request to response latency (s)
system.mem_ctrls.numReadWriteTurnArounds            0                       # Number of turnarounds from READ to WRITE
system.mem_ctrls.numWriteReadTurnArounds            0                       # Number of turnarounds from WRITE to READ
system.mem_ctrls.numStayReadState               10291                       # Number of times bus staying in READ state
system.mem_ctrls.numStayWriteState                  0                       # Number of times bus staying in WRITE state
system.mem_ctrls.readReqs                        4705                       # Number of read requests accepted
system.mem_ctrls.writeReqs                          4                       # Number of write requests accepted
system.mem_ctrls.readBursts                      4705                       # Number of controller read bursts, including those serviced by the write queue
system.mem_ctrls.writeBursts                        4                       # Number of controller write bursts, including those merged in the write queue
system.mem_ctrls.servicedByWrQ                      0                       # Number of controller read bursts serviced by the write queue
system.mem_ctrls.mergedWrBursts                     0                       # Number of controller write bursts merged with an existing one
system.mem_ctrls.neitherReadNorWriteReqs            0                       # Number of requests that are neither read nor write
system.mem_ctrls.avgRdQLen                       1.02                       # Average read queue length when enqueuing
system.mem_ctrls.avgWrQLen                       2.61                       # Average write queue length when enqueuing
system.mem_ctrls.numRdRetry                         0                       # Number of times read queue was full causing retry
system.mem_ctrls.numWrRetry                         0                       # Number of times write queue was full causing retry
system.mem_ctrls.readPktSize::0                     0                       # Read request sizes (log2)
system.mem_ctrls.readPktSize::1                     0                       # Read request sizes (log2)
system.mem_ctrls.readPktSize::2                     0                       # Read request sizes (log2)
system.mem_ctrls.readPktSize::3                     0                       # Read request sizes (log2)
system.mem_ctrls.readPktSize::4                     0                       # Read request sizes (log2)
system.mem_ctrls.readPktSize::5                     0                       # Read request sizes (log2)
system.mem_ctrls.readPktSize::6                  4705                       # Read request sizes (log2)
system.mem_ctrls.writePktSize::0                    0                       # Write request sizes (log2)
system.mem_ctrls.writePktSize::1                    0                       # Write request sizes (log2)
system.mem_ctrls.writePktSize::2                    0                       # Write request sizes (log2)
system.mem_ctrls.writePktSize::3                    0                       # Write request sizes (log2)
system.mem_ctrls.writePktSize::4                    0                       # Write request sizes (log2)
system.mem_ctrls.writePktSize::5                    0                       # Write request sizes (log2)
system.mem_ctrls.writePktSize::6                    4                       # Write request sizes (log2)
system.mem_ctrls.rdQLenPdf::0                    3931                       # What read queue length does an incoming req see
system.mem_ctrls.rdQLenPdf::1                     605                       # What read queue length does an incoming req see
system.mem_ctrls.rdQLenPdf::2                     140                       # What read queue length does an incoming req see
system.mem_ctrls.rdQLenPdf::3                      23                       # What read queue length does an incoming req see
system.mem_ctrls.rdQLenPdf::4                       6                       # What read queue length does an incoming req see
system.mem_ctrls.rdQLenPdf::5                       0                       # What read queue length does an incoming req see
system.mem_ctrls.rdQLenPdf::6                       0                       # What read queue length does an incoming req see
system.mem_ctrls.rdQLenPdf::7                       0                       # What read queue length does an incoming req see
system.mem_ctrls.rdQLenPdf::8                       0                       # What read queue length does an incoming req see
system.mem_ctrls.rdQLenPdf::9                       0                       # What read queue length does an incoming req see
system.mem_ctrls.rdQLenPdf::10                      0                       # What read queue length does an incoming req see
system.mem_ctrls.rdQLenPdf::11                      0                       # What read queue length does an incoming req see
system.mem_ctrls.rdQLenPdf::12                      0                       # What read queue length does an incoming req see
system.mem_ctrls.rdQLenPdf::13                      0                       # What read queue length does an incoming req see
system.mem_ctrls.rdQLenPdf::14                      0                       # What read queue length does an incoming req see
system.mem_ctrls.rdQLenPdf::15                      0                       # What read queue length does an incoming req see
system.mem_ctrls.rdQLenPdf::16                      0                       # What read queue length does an incoming req see
system.mem_ctrls.rdQLenPdf::17                      0                       # What read queue length does an incoming req see
system.mem_ctrls.rdQLenPdf::18                      0                       # What read queue length does an incoming req see
system.mem_ctrls.rdQLenPdf::19                      0                       # What read queue length does an incoming req see
system.mem_ctrls.rdQLenPdf::20                      0                       # What read queue length does an incoming req see
system.mem_ctrls.rdQLenPdf::21                      0                       # What read queue length does an incoming req see
system.mem_ctrls.rdQLenPdf::22                      0                       # What read queue length does an incoming req see
system.mem_ctrls.rdQLenPdf::23                      0                       # What read queue length does an incoming req see
system.mem_ctrls.rdQLenPdf::24                      0                       # What read queue length does an incoming req see
system.mem_ctrls.rdQLenPdf::25                      0                       # What read queue length does an incoming req see
system.mem_ctrls.rdQLenPdf::26                      0                       # What read queue length does an incoming req see
system.mem_ctrls.rdQLenPdf::27                      0                       # What read queue length does an incoming req see
system.mem_ctrls.rdQLenPdf::28                      0                       # What read queue length does an incoming req see
system.mem_ctrls.rdQLenPdf::29                      0                       # What read queue length does an incoming req see
system.mem_ctrls.rdQLenPdf::30                      0                       # What read queue length does an incoming req see
system.mem_ctrls.rdQLenPdf::31                      0                       # What read queue length does an incoming req see
system.mem_ctrls.wrQLenPdf::0                       1                       # What write queue length does an incoming req see
system.mem_ctrls.wrQLenPdf::1                       1                       # What write queue length does an incoming req see
system.mem_ctrls.wrQLenPdf::2                       1                       # What write queue length does an incoming req see
system.mem_ctrls.wrQLenPdf::3                       1                       # What write queue length does an incoming req see
system.mem_ctrls.wrQLenPdf::4                       0                       # What write queue length does an incoming req see
system.mem_ctrls.wrQLenPdf::5                       0                       # What write queue length does an incoming req see
system.mem_ctrls.wrQLenPdf::6                       0                       # What write queue length does an incoming req see
system.mem_ctrls.wrQLenPdf::7                       0                       # What write queue length does an incoming req see
system.mem_ctrls.wrQLenPdf::8                       0                       # What write queue length does an incoming req see
system.mem_ctrls.wrQLenPdf::9                       0                       # What write queue length does an incoming req see
system.mem_ctrls.wrQLenPdf::10                      0                       # What write queue length does an incoming req see
system.mem_ctrls.wrQLenPdf::11                      0                       # What write queue length does an incoming req see
system.mem_ctrls.wrQLenPdf::12                      0                       # What write queue length does an incoming req see
system.mem_ctrls.wrQLenPdf::13                      0                       # What write queue length does an incoming req see
system.mem_ctrls.wrQLenPdf::14                      0                       # What write queue length does an incoming req see
system.mem_ctrls.wrQLenPdf::15                      0                       # What write queue length does an incoming req see
system.mem_ctrls.wrQLenPdf::16                      0                       # What write queue length does an incoming req see
system.mem_ctrls.wrQLenPdf::17                      0                       # What write queue length does an incoming req see
system.mem_ctrls.wrQLenPdf::18                      0                       # What write queue length does an incoming req see
system.mem_ctrls.wrQLenPdf::19                      0                       # What write queue length does an incoming req see
system.mem_ctrls.wrQLenPdf::20                      0                       # What write queue length does an incoming req see
system.mem_ctrls.wrQLenPdf::21                      0                       # What write queue length does an incoming req see
system.mem_ctrls.wrQLenPdf::22                      0                       # What write queue length does an incoming req see
system.mem_ctrls.wrQLenPdf::23                      0                       # What write queue length does an incoming req see
system.mem_ctrls.wrQLenPdf::24                      0                       # What write queue length does an incoming req see
system.mem_ctrls.wrQLenPdf::25                      0                       # What write queue length does an incoming req see
system.mem_ctrls.wrQLenPdf::26                      0                       # What write queue length does an incoming req see
system.mem_ctrls.wrQLenPdf::27                      0                       # What write queue length does an incoming req see
system.mem_ctrls.wrQLenPdf::28                      0                       # What write queue length does an incoming req see
system.mem_ctrls.wrQLenPdf::29                      0                       # What write queue length does an incoming req see
system.mem_ctrls.wrQLenPdf::30                      0                       # What write queue length does an incoming req see
system.mem_ctrls.wrQLenPdf::31                      0                       # What write queue length does an incoming req see
system.mem_ctrls.wrQLenPdf::32                      0                       # What write queue length does an incoming req see
system.mem_ctrls.wrQLenPdf::33                      0                       # What write queue length does an incoming req see
system.mem_ctrls.wrQLenPdf::34                      0                       # What write queue length does an incoming req see
system.mem_ctrls.wrQLenPdf::35                      0                       # What write queue length does an incoming req see
system.mem_ctrls.wrQLenPdf::36                      0                       # What write queue length does an incoming req see
system.mem_ctrls.wrQLenPdf::37                      0                       # What write queue length does an incoming req see
system.mem_ctrls.wrQLenPdf::38                      0                       # What write queue length does an incoming req see
system.mem_ctrls.wrQLenPdf::39                      0                       # What write queue length does an incoming req see
system.mem_ctrls.wrQLenPdf::40                      0                       # What write queue length does an incoming req see
system.mem_ctrls.wrQLenPdf::41                      0                       # What write queue length does an incoming req see
system.mem_ctrls.wrQLenPdf::42                      0                       # What write queue length does an incoming req see
system.mem_ctrls.wrQLenPdf::43                      0                       # What write queue length does an incoming req see
system.mem_ctrls.wrQLenPdf::44                      0                       # What write queue length does an incoming req see
system.mem_ctrls.wrQLenPdf::45                      0                       # What write queue length does an incoming req see
system.mem_ctrls.wrQLenPdf::46                      0                       # What write queue length does an incoming req see
system.mem_ctrls.wrQLenPdf::47                      0                       # What write queue length does an incoming req see
system.mem_ctrls.wrQLenPdf::48                      0                       # What write queue length does an incoming req see
system.mem_ctrls.wrQLenPdf::49                      0                       # What write queue length does an incoming req see
system.mem_ctrls.wrQLenPdf::50                      0                       # What write queue length does an incoming req see
system.mem_ctrls.wrQLenPdf::51                      0                       # What write queue length does an incoming req see
system.mem_ctrls.wrQLenPdf::52                      0                       # What write queue length does an incoming req see
system.mem_ctrls.wrQLenPdf::53                      0                       # What write queue length does an incoming req see
system.mem_ctrls.wrQLenPdf::54                      0                       # What write queue length does an incoming req see
system.mem_ctrls.wrQLenPdf::55                      0                       # What write queue length does an incoming req see
system.mem_ctrls.wrQLenPdf::56                      0                       # What write queue length does an incoming req see
system.mem_ctrls.wrQLenPdf::57                      0                       # What write queue length does an incoming req see
system.mem_ctrls.wrQLenPdf::58                      0                       # What write queue length does an incoming req see
system.mem_ctrls.wrQLenPdf::59                      0                       # What write queue length does an incoming req see
system.mem_ctrls.wrQLenPdf::60                      0                       # What write queue length does an incoming req see
system.mem_ctrls.wrQLenPdf::61                      0                       # What write queue length does an incoming req see
system.mem_ctrls.wrQLenPdf::62                      0                       # What write queue length does an incoming req see
system.mem_ctrls.wrQLenPdf::63                      0                       # What write queue length does an incoming req see
system.mem_ctrls.bytesReadWrQ                       0                       # Total number of bytes read from write queue
system.mem_ctrls.bytesReadSys                  301120                       # Total read bytes from the system interface side
system.mem_ctrls.bytesWrittenSys                  256                       # Total written bytes from the system interface side
system.mem_ctrls.avgRdBWSys                     83.06                       # Average system read bandwidth in MiByte/s
system.mem_ctrls.avgWrBWSys                      0.07                       # Average system write bandwidth in MiByte/s
system.mem_ctrls.totGap                    3625208000                       # Total gap between requests
system.mem_ctrls.avgGap                     769846.68                       # Average gap between requests
system.mem_ctrls.requestorReadBytes::.cpu.inst       114880                       # Per-requestor bytes read from memory
system.mem_ctrls.requestorReadBytes::.cpu.data       186240                       # Per-requestor bytes read from memory
system.mem_ctrls.requestorReadRate::.cpu.inst 31688438.216234423220                       # Per-requestor bytes read from memory rate (Bytes/sec)
system.mem_ctrls.requestorReadRate::.cpu.data 51372342.734953850508                       # Per-requestor bytes read from memory rate (Bytes/sec)
system.mem_ctrls.requestorReadAccesses::.cpu.inst         1795                       # Per-requestor read serviced memory accesses
system.mem_ctrls.requestorReadAccesses::.cpu.data         2910                       # Per-requestor read serviced memory accesses
system.mem_ctrls.requestorWriteAccesses::.writebacks            4                       # Per-requestor write serviced memory accesses
system.mem_ctrls.requestorReadTotalLat::.cpu.inst     49823250                       # Per-requestor read total memory access latency
system.mem_ctrls.requestorReadTotalLat::.cpu.data     74755000                       # Per-requestor read total memory access latency
system.mem_ctrls.requestorReadAvgLat::.cpu.inst     27756.69                       # Per-requestor read average memory access latency
system.mem_ctrls.requestorReadAvgLat::.cpu.data     25689.00                       # Per-requestor read average memory access latency
system.mem_ctrls.requestorWriteAvgLat::.writebacks         0.00                       # Per-requestor write average memory access latency
system.mem_ctrls.dram.bytes_read::.cpu.inst       114880                       # Number of bytes read from this memory
system.mem_ctrls.dram.bytes_read::.cpu.data       186240                       # Number of bytes read from this memory
system.mem_ctrls.dram.bytes_read::total        301120                       # Number of bytes read from this memory
system.mem_ctrls.dram.bytes_inst_read::.cpu.inst       114880                       # Number of instructions bytes read from this memory
system.mem_ctrls.dram.bytes_inst_read::total       114880                       # Number of instructions bytes read from this memory
system.mem_ctrls.dram.bytes_written::.writebacks          256                       # Number of bytes written to this memory
system.mem_ctrls.dram.bytes_written::total          256                       # Number of bytes written to this memory
system.mem_ctrls.dram.num_reads::.cpu.inst         1795                       # Number of read requests responded to by this memory
system.mem_ctrls.dram.num_reads::.cpu.data         2910                       # Number of read requests responded to by this memory
system.mem_ctrls.dram.num_reads::total           4705                       # Number of read requests responded to by this memory
system.mem_ctrls.dram.num_writes::.writebacks            4                       # Number of write requests responded to by this memory
system.mem_ctrls.dram.num_writes::total             4                       # Number of write requests responded to by this memory
system.mem_ctrls.dram.bw_read::.cpu.inst     31688438                       # Total read bandwidth from this memory (bytes/s)
system.mem_ctrls.dram.bw_read::.cpu.data     51372343                       # Total read bandwidth from this memory (bytes/s)
system.mem_ctrls.dram.bw_read::total         83060781                       # Total read bandwidth from this memory (bytes/s)
system.mem_ctrls.dram.bw_inst_read::.cpu.inst     31688438                       # Instruction read bandwidth from this memory (bytes/s)
system.mem_ctrls.dram.bw_inst_read::total     31688438                       # Instruction read bandwidth from this memory (bytes/s)
system.mem_ctrls.dram.bw_write::.writebacks        70615                       # Write bandwidth from this memory (bytes/s)
system.mem_ctrls.dram.bw_write::total           70615                       # Write bandwidth from this memory (bytes/s)
system.mem_ctrls.dram.bw_total::.writebacks        70615                       # Total bandwidth to/from this memory (bytes/s)
system.mem_ctrls.dram.bw_total::.cpu.inst     31688438                       # Total bandwidth to/from this memory (bytes/s)
system.mem_ctrls.dram.bw_total::.cpu.data     51372343                       # Total bandwidth to/from this memory (bytes/s)
system.mem_ctrls.dram.bw_total::total        83131396                       # Total bandwidth to/from this memory (bytes/s)
system.mem_ctrls.dram.readBursts                 4705                       # Number of DRAM read bursts
system.mem_ctrls.dram.writeBursts                   0                       # Number of DRAM write bursts
system.mem_ctrls.dram.perBankRdBursts::0          325                       # Per bank write bursts
system.mem_ctrls.dram.perBankRdBursts::1          375                       # Per bank write bursts
system.mem_ctrls.dram.perBankRdBursts::2          436                       # Per bank write bursts
system.mem_ctrls.dram.perBankRdBursts::3          424                       # Per bank write bursts
system.mem_ctrls.dram.perBankRdBursts::4          348                       # Per bank write bursts
system.mem_ctrls.dram.perBankRdBursts::5          389                       # Per bank write bursts
system.mem_ctrls.dram.perBankRdBursts::6          254                       # Per bank write bursts
system.mem_ctrls.dram.perBankRdBursts::7          173                       # Per bank write bursts
system.mem_ctrls.dram.perBankRdBursts::8          238                       # Per bank write bursts
system.mem_ctrls.dram.perBankRdBursts::9          212                       # Per bank write bursts
system.mem_ctrls.dram.perBankRdBursts::10          304                       # Per bank write bursts
system.mem_ctrls.dram.perBankRdBursts::11          209                       # Per bank write bursts
system.mem_ctrls.dram.perBankRdBursts::12          162                       # Per bank write bursts
system.mem_ctrls.dram.perBankRdBursts::13          268                       # Per bank write bursts
system.mem_ctrls.dram.perBankRdBursts::14          290                       # Per bank write bursts
system.mem_ctrls.dram.perBankRdBursts::15          298                       # Per bank write bursts
system.mem_ctrls.dram.perBankWrBursts::0            0                       # Per bank write bursts
system.mem_ctrls.dram.perBankWrBursts::1            0                       # Per bank write bursts
system.mem_ctrls.dram.perBankWrBursts::2            0                       # Per bank write bursts
system.mem_ctrls.dram.perBankWrBursts::3            0                       # Per bank write bursts
system.mem_ctrls.dram.perBankWrBursts::4            0                       # Per bank write bursts
system.mem_ctrls.dram.perBankWrBursts::5            0                       # Per bank write bursts
system.mem_ctrls.dram.perBankWrBursts::6            0                       # Per bank write bursts
system.mem_ctrls.dram.perBankWrBursts::7            0                       # Per bank write bursts
system.mem_ctrls.dram.perBankWrBursts::8            0                       # Per bank write bursts
system.mem_ctrls.dram.perBankWrBursts::9            0                       # Per bank write bursts
system.mem_ctrls.dram.perBankWrBursts::10            0                       # Per bank write bursts
system.mem_ctrls.dram.perBankWrBursts::11            0                       # Per bank write bursts
system.mem_ctrls.dram.perBankWrBursts::12            0                       # Per bank write bursts
system.mem_ctrls.dram.perBankWrBursts::13            0                       # Per bank write bursts
system.mem_ctrls.dram.perBankWrBursts::14            0                       # Per bank write bursts
system.mem_ctrls.dram.perBankWrBursts::15            0                       # Per bank write bursts
system.mem_ctrls.dram.totQLat                36359500                       # Total ticks spent queuing
system.mem_ctrls.dram.totBusLat              23525000                       # Total ticks spent in databus transfers
system.mem_ctrls.dram.totMemAccLat          124578250                       # Total ticks spent from burst creation until serviced by the DRAM
system.mem_ctrls.dram.avgQLat                 7727.84                       # Average queueing delay per DRAM burst
system.mem_ctrls.dram.avgBusLat               5000.00                       # Average bus latency per DRAM burst
system.mem_ctrls.dram.avgMemAccLat           26477.84                       # Average memory access latency per DRAM burst
system.mem_ctrls.dram.readRowHits                3868                       # Number of row buffer hits during reads
system.mem_ctrls.dram.writeRowHits                  0                       # Number of row buffer hits during writes
system.mem_ctrls.dram.readRowHitRate            82.21                       # Row buffer hit rate for reads
system.mem_ctrls.dram.writeRowHitRate             nan                       # Row buffer hit rate for writes
system.mem_ctrls.dram.bytesPerActivate::samples          826                       # Bytes accessed per row activation
system.mem_ctrls.dram.bytesPerActivate::mean   362.227603                       # Bytes accessed per row activation
system.mem_ctrls.dram.bytesPerActivate::gmean   230.294338                       # Bytes accessed per row activation
system.mem_ctrls.dram.bytesPerActivate::stdev   321.288310                       # Bytes accessed per row activation
system.mem_ctrls.dram.bytesPerActivate::0-127          230     27.85%     27.85% # Bytes accessed per row activation
system.mem_ctrls.dram.bytesPerActivate::128-255          167     20.22%     48.06% # Bytes accessed per row activation
system.mem_ctrls.dram.bytesPerActivate::256-383           94     11.38%     59.44% # Bytes accessed per row activation
system.mem_ctrls.dram.bytesPerActivate::384-511           92     11.14%     70.58% # Bytes accessed per row activation
system.mem_ctrls.dram.bytesPerActivate::512-639           68      8.23%     78.81% # Bytes accessed per row activation
system.mem_ctrls.dram.bytesPerActivate::640-767           40      4.84%     83.66% # Bytes accessed per row activation
system.mem_ctrls.dram.bytesPerActivate::768-895           27      3.27%     86.92% # Bytes accessed per row activation
system.mem_ctrls.dram.bytesPerActivate::896-1023           21      2.54%     89.47% # Bytes accessed per row activation
system.mem_ctrls.dram.bytesPerActivate::1024-1151           87     10.53%    100.00% # Bytes accessed per row activation
system.mem_ctrls.dram.bytesPerActivate::total          826                       # Bytes accessed per row activation
[...]
system.cpu.dcache.SoftPFReq_hits::total          2105                       # number of SoftPFReq hits
system.cpu.dcache.SoftPFReq_misses::.cpu.data          599                       # number of SoftPFReq misses
system.cpu.dcache.SoftPFReq_misses::total          599                       # number of SoftPFReq misses
system.cpu.dcache.SoftPFReq_accesses::.cpu.data         2704                       # number of SoftPFReq accesses(hits+misses)
system.cpu.dcache.SoftPFReq_accesses::total         2704                       # number of SoftPFReq accesses(hits+misses)
system.cpu.dcache.SoftPFReq_miss_rate::.cpu.data     0.221524                       # miss rate for SoftPFReq accesses
system.cpu.dcache.SoftPFReq_miss_rate::total     0.221524                       # miss rate for SoftPFReq accesses
system.cpu.dcache.SoftPFReq_mshr_misses::.cpu.data          414                       # number of SoftPFReq MSHR misses
system.cpu.dcache.SoftPFReq_mshr_misses::total          414                       # number of SoftPFReq MSHR misses
system.cpu.dcache.SoftPFReq_mshr_miss_latency::.cpu.data      5037500                       # number of SoftPFReq MSHR miss cycles
system.cpu.dcache.SoftPFReq_mshr_miss_latency::total      5037500                       # number of SoftPFReq MSHR miss cycles
system.cpu.dcache.SoftPFReq_mshr_miss_rate::.cpu.data     0.153107                       # mshr miss rate for SoftPFReq accesses
system.cpu.dcache.SoftPFReq_mshr_miss_rate::total     0.153107                       # mshr miss rate for SoftPFReq accesses
system.cpu.dcache.SoftPFReq_avg_mshr_miss_latency::.cpu.data 12167.874396                       # average SoftPFReq mshr miss latency
system.cpu.dcache.SoftPFReq_avg_mshr_miss_latency::total 12167.874396                       # average SoftPFReq mshr miss latency
system.cpu.dcache.power_state.pwrStateResidencyTicks::UNDEFINED   3625297000                       # Cumulative time (in ticks) in various power states
system.cpu.dcache.tags.tagsinuse           978.654761                       # Cycle average of tags in use
system.cpu.dcache.tags.total_refs             4313105                       # Total number of references to valid blocks.
system.cpu.dcache.tags.sampled_refs             72227                       # Sample count of references to valid blocks.
system.cpu.dcache.tags.avg_refs             59.715965                       # Average number of references to valid blocks.
system.cpu.dcache.tags.warmup_cycle            176500                       # Cycle when the warmup percentage was hit.
system.cpu.dcache.tags.occ_blocks::.cpu.data   978.654761                       # Average occupied blocks per requestor
system.cpu.dcache.tags.occ_percent::.cpu.data     0.955718                       # Average percentage of cache occupancy
system.cpu.dcache.tags.occ_percent::total     0.955718                       # Average percentage of cache occupancy
system.cpu.dcache.tags.occ_task_id_blocks::1024         1024                       # Occupied blocks per task id
system.cpu.dcache.tags.age_task_id_blocks_1024::0          213                       # Occupied blocks per task id
system.cpu.dcache.tags.age_task_id_blocks_1024::1          345                       # Occupied blocks per task id
system.cpu.dcache.tags.age_task_id_blocks_1024::2           38                       # Occupied blocks per task id
system.cpu.dcache.tags.age_task_id_blocks_1024::3          428                       # Occupied blocks per task id
system.cpu.dcache.tags.occ_task_id_percent::1024            1                       # Percentage of cache occupancy per task id
system.cpu.dcache.tags.tag_accesses          19446879                       # Number of tag accesses
system.cpu.dcache.tags.data_accesses         19446879                       # Number of data accesses
system.cpu.dcache.tags.power_state.pwrStateResidencyTicks::UNDEFINED   3625297000                       # Cumulative time (in ticks) in various power states
system.cpu.power_state.pwrStateResidencyTicks::ON   3625297000                       # Cumulative time (in ticks) in various power states
system.cpu.branchPred.lookups                 3062501                       # Number of BP lookups
system.cpu.branchPred.condPredicted           2899794                       # Number of conditional branches predicted
system.cpu.branchPred.condIncorrect            117358                       # Number of conditional branches incorrect
system.cpu.branchPred.BTBLookups              2517945                       # Number of BTB lookups
system.cpu.branchPred.BTBHits                 2513877                       # Number of BTB hits
system.cpu.branchPred.BTBHitPct             99.838440                       # BTB Hit Percentage
system.cpu.branchPred.RASUsed                   37105                       # Number of times the RAS was used to get a target.
system.cpu.branchPred.RASIncorrect                 15                       # Number of incorrect RAS predictions.
system.cpu.branchPred.indirectLookups           11916                       # Number of indirect predictor lookups.
system.cpu.branchPred.indirectHits               8766                       # Number of indirect target hits.
system.cpu.branchPred.indirectMisses             3150                       # Number of indirect misses.
system.cpu.branchPred.indirectMispredicted          463                       # Number of mispredicted indirect branches.
system.cpu.commit.commitSquashedInsts         4154168                       # The number of squashed insts skipped by commit
system.cpu.commit.commitNonSpecStalls             199                       # The number of times commit has been forced to stall to communicate backwards
system.cpu.commit.branchMispredicts            115015                       # The number of times a branch was mispredicted
system.cpu.commit.numCommittedDist::samples      6535989                       # Number of insts commited each cycle
system.cpu.commit.numCommittedDist::mean     3.524291                       # Number of insts commited each cycle
system.cpu.commit.numCommittedDist::stdev     3.461672                       # Number of insts commited each cycle
system.cpu.commit.numCommittedDist::underflows            0      0.00%      0.00% # Number of insts commited each cycle
system.cpu.commit.numCommittedDist::0         1990240     30.45%     30.45% # Number of insts commited each cycle
system.cpu.commit.numCommittedDist::1         1040478     15.92%     46.37% # Number of insts commited each cycle
system.cpu.commit.numCommittedDist::2          495141      7.58%     53.95% # Number of insts commited each cycle
system.cpu.commit.numCommittedDist::3          295696      4.52%     58.47% # Number of insts commited each cycle
system.cpu.commit.numCommittedDist::4          289965      4.44%     62.91% # Number of insts commited each cycle
system.cpu.commit.numCommittedDist::5           80663      1.23%     64.14% # Number of insts commited each cycle
system.cpu.commit.numCommittedDist::6           56101      0.86%     65.00% # Number of insts commited each cycle
system.cpu.commit.numCommittedDist::7           84540      1.29%     66.29% # Number of insts commited each cycle
system.cpu.commit.numCommittedDist::8         2203165     33.71%    100.00% # Number of insts commited each cycle
system.cpu.commit.numCommittedDist::overflows            0      0.00%    100.00% # Number of insts commited each cycle
system.cpu.commit.numCommittedDist::min_value            0                       # Number of insts commited each cycle
system.cpu.commit.numCommittedDist::max_value            8                       # Number of insts commited each cycle
system.cpu.commit.numCommittedDist::total      6535989                       # Number of insts commited each cycle
system.cpu.commit.instsCommitted             11753748                       # Number of instructions committed
system.cpu.commit.opsCommitted               23034729                       # Number of ops (including micro ops) committed
system.cpu.commit.memRefs                     4539604                       # Number of memory references committed
system.cpu.commit.loads                       4085030                       # Number of loads committed
system.cpu.commit.amos                              0                       # Number of atomic instructions committed
system.cpu.commit.membars                           0                       # Number of memory barriers committed
system.cpu.commit.branches                    2257234                       # Number of branches committed
system.cpu.commit.vector                            0                       # Number of committed Vector instructions.
system.cpu.commit.floating                    4483498                       # Number of committed floating point instructions.
system.cpu.commit.integer                    20467831                       # Number of committed integer instructions.
system.cpu.commit.functionCalls                 27379                       # Number of function calls committed.
system.cpu.commit.committedInstType_0::No_OpClass       134212      0.58%      0.58% # Class of committed instruction
system.cpu.commit.committedInstType_0::IntAlu     15318559     66.50%     67.08% # Class of committed instruction
system.cpu.commit.committedInstType_0::IntMult        18643      0.08%     67.17% # Class of committed instruction
system.cpu.commit.committedInstType_0::IntDiv       567325      2.46%     69.63% # Class of committed instruction
system.cpu.commit.committedInstType_0::FloatAdd       197707      0.86%     70.49% # Class of committed instruction
system.cpu.commit.committedInstType_0::FloatCmp            0      0.00%     70.49% # Class of committed instruction
system.cpu.commit.committedInstType_0::FloatCvt            0      0.00%     70.49% # Class of committed instruction
system.cpu.commit.committedInstType_0::FloatMult            0      0.00%     70.49% # Class of committed instruction
system.cpu.commit.committedInstType_0::FloatMultAcc            0      0.00%     70.49% # Class of committed instruction
system.cpu.commit.committedInstType_0::FloatDiv            0      0.00%     70.49% # Class of committed instruction
system.cpu.commit.committedInstType_0::FloatMisc            0      0.00%     70.49% # Class of committed instruction
system.cpu.commit.committedInstType_0::FloatSqrt            0      0.00%     70.49% # Class of committed instruction
system.cpu.commit.committedInstType_0::SimdAdd         2442      0.01%     70.50% # Class of committed instruction
system.cpu.commit.committedInstType_0::SimdAddAcc            0      0.00%     70.50% # Class of committed instruction
system.cpu.commit.committedInstType_0::SimdAlu       323704      1.41%     71.90% # Class of committed instruction
system.cpu.commit.committedInstType_0::SimdCmp            0      0.00%     71.90% # Class of committed instruction
system.cpu.commit.committedInstType_0::SimdCvt        11138      0.05%     71.95% # Class of committed instruction
system.cpu.commit.committedInstType_0::SimdMisc        55423      0.24%     72.19% # Class of committed instruction
system.cpu.commit.committedInstType_0::SimdMult            0      0.00%     72.19% # Class of committed instruction
system.cpu.commit.committedInstType_0::SimdMultAcc            0      0.00%     72.19% # Class of committed instruction
system.cpu.commit.committedInstType_0::SimdShift         1222      0.01%     72.20% # Class of committed instruction
system.cpu.commit.committedInstType_0::SimdShiftAcc            0      0.00%     72.20% # Class of committed instruction
system.cpu.commit.committedInstType_0::SimdDiv            0      0.00%     72.20% # Class of committed instruction
system.cpu.commit.committedInstType_0::SimdSqrt            0      0.00%     72.20% # Class of committed instruction
system.cpu.commit.committedInstType_0::SimdFloatAdd      1667728      7.24%     79.44% # Class of committed instruction
system.cpu.commit.committedInstType_0::SimdFloatAlu            0      0.00%     79.44% # Class of committed instruction
system.cpu.commit.committedInstType_0::SimdFloatCmp            0      0.00%     79.44% # Class of committed instruction
system.cpu.commit.committedInstType_0::SimdFloatCvt        98667      0.43%     79.87% # Class of committed instruction
system.cpu.commit.committedInstType_0::SimdFloatDiv        49203      0.21%     80.08% # Class of committed instruction
system.cpu.commit.committedInstType_0::SimdFloatMisc            0      0.00%     80.08% # Class of committed instruction
system.cpu.commit.committedInstType_0::SimdFloatMult        49152      0.21%     80.29% # Class of committed instruction
system.cpu.commit.committedInstType_0::SimdFloatMultAcc            0      0.00%     80.29% # Class of committed instruction
system.cpu.commit.committedInstType_0::SimdFloatSqrt            0      0.00%     80.29% # Class of committed instruction
system.cpu.commit.committedInstType_0::SimdReduceAdd            0      0.00%     80.29% # Class of committed instruction
system.cpu.commit.committedInstType_0::SimdReduceAlu            0      0.00%     80.29% # Class of committed instruction
system.cpu.commit.committedInstType_0::SimdReduceCmp            0      0.00%     80.29% # Class of committed instruction
system.cpu.commit.committedInstType_0::SimdFloatReduceAdd            0      0.00%     80.29% # Class of committed instruction
system.cpu.commit.committedInstType_0::SimdFloatReduceCmp            0      0.00%     80.29% # Class of committed instruction
system.cpu.commit.committedInstType_0::SimdAes            0      0.00%     80.29% # Class of committed instruction
system.cpu.commit.committedInstType_0::SimdAesMix            0      0.00%     80.29% # Class of committed instruction
system.cpu.commit.committedInstType_0::SimdSha1Hash            0      0.00%     80.29% # Class of committed instruction
system.cpu.commit.committedInstType_0::SimdSha1Hash2            0      0.00%     80.29% # Class of committed instruction
system.cpu.commit.committedInstType_0::SimdSha256Hash            0      0.00%     80.29% # Class of committed instruction
system.cpu.commit.committedInstType_0::SimdSha256Hash2            0      0.00%     80.29% # Class of committed instruction
system.cpu.commit.committedInstType_0::SimdShaSigma2            0      0.00%     80.29% # Class of committed instruction
system.cpu.commit.committedInstType_0::SimdShaSigma3            0      0.00%     80.29% # Class of committed instruction
system.cpu.commit.committedInstType_0::SimdPredAlu            0      0.00%     80.29% # Class of committed instruction
system.cpu.commit.committedInstType_0::MemRead      2245128      9.75%     90.04% # Class of committed instruction
system.cpu.commit.committedInstType_0::MemWrite       286823      1.25%     91.28% # Class of committed instruction
system.cpu.commit.committedInstType_0::FloatMemRead      1839902      7.99%     99.27% # Class of committed instruction
system.cpu.commit.committedInstType_0::FloatMemWrite       167751      0.73%    100.00% # Class of committed instruction
system.cpu.commit.committedInstType_0::IprAccess            0      0.00%    100.00% # Class of committed instruction
system.cpu.commit.committedInstType_0::InstPrefetch            0      0.00%    100.00% # Class of committed instruction
system.cpu.commit.committedInstType_0::total     23034729                       # Class of committed instruction
system.cpu.commit.commitEligibleSamples       2203165                       # number cycles where commit BW limit reached
system.cpu.thread0.numInsts                  11753748                       # Number of Instructions committed
system.cpu.thread0.numOps                    23034729                       # Number of Ops committed
system.cpu.thread0.numMemRefs                       0                       # Number of Memory References
system.cpu.fetch.icacheStallCycles             839581                       # Number of cycles fetch is stalled on an Icache miss
system.cpu.fetch.insts                       15783151                       # Number of instructions fetch has processed
system.cpu.fetch.branches                     3062501                       # Number of branches that fetch encountered
system.cpu.fetch.predictedBranches            2559748                       # Number of branches that fetch has predicted taken
system.cpu.fetch.cycles                       6159268                       # Number of cycles fetch has run and was not squashing or blocked
system.cpu.fetch.squashCycles                  238936                       # Number of cycles fetch has spent squashing
system.cpu.fetch.miscStallCycles                  419                       # Number of cycles fetch has spent waiting on interrupts,or bad addresses, or out of MSHRs
system.cpu.fetch.pendingTrapStallCycles          2779                       # Number of stall cycles due to pending traps
system.cpu.fetch.pendingQuiesceStallCycles            1                       # Number of stall cycles due to pending quiesce instructions
system.cpu.fetch.icacheWaitRetryStallCycles           72                       # Number of stall cycles due to full MSHR
system.cpu.fetch.cacheLines                    753153                       # Number of cache lines fetched
system.cpu.fetch.icacheSquashes                 20904                       # Number of outstanding Icache misses that were squashed
system.cpu.fetch.nisnDist::samples            7121588                       # Number of instructions fetched each cycle (Total)
system.cpu.fetch.nisnDist::mean              4.225376                       # Number of instructions fetched each cycle (Total)
system.cpu.fetch.nisnDist::stdev             3.383246                       # Number of instructions fetched each cycle (Total)
system.cpu.fetch.nisnDist::underflows               0      0.00%      0.00% # Number of instructions fetched each cycle (Total)
system.cpu.fetch.nisnDist::0                  1664930     23.38%     23.38% # Number of instructions fetched each cycle (Total)
system.cpu.fetch.nisnDist::1                    65965      0.93%     24.30% # Number of instructions fetched each cycle (Total)
system.cpu.fetch.nisnDist::2                  1816623     25.51%     49.81% # Number of instructions fetched each cycle (Total)
system.cpu.fetch.nisnDist::3                   134798      1.89%     51.71% # Number of instructions fetched each cycle (Total)
system.cpu.fetch.nisnDist::4                   155096      2.18%     53.88% # Number of instructions fetched each cycle (Total)
system.cpu.fetch.nisnDist::5                   114014      1.60%     55.49% # Number of instructions fetched each cycle (Total)
system.cpu.fetch.nisnDist::6                   177647      2.49%     57.98% # Number of instructions fetched each cycle (Total)
system.cpu.fetch.nisnDist::7                   208677      2.93%     60.91% # Number of instructions fetched each cycle (Total)
system.cpu.fetch.nisnDist::8                  2783838     39.09%    100.00% # Number of instructions fetched each cycle (Total)
system.cpu.fetch.nisnDist::overflows                0      0.00%    100.00% # Number of instructions fetched each cycle (Total)
system.cpu.fetch.nisnDist::min_value                0                       # Number of instructions fetched each cycle (Total)
system.cpu.fetch.nisnDist::max_value                8                       # Number of instructions fetched each cycle (Total)
system.cpu.fetch.nisnDist::total              7121588                       # Number of instructions fetched each cycle (Total)
system.cpu.fetch.branchRate                  0.422379                       # Number of branch fetches per cycle
system.cpu.fetch.rate                        2.176808                       # Number of inst fetches per cycle

---------- End Simulation Statistics   ----------
