
---------- Begin Simulation Statistics ----------
final_tick                                 3750896000                       # Number of ticks from beginning of simulation (restored from checkpoints and never reset)
host_inst_rate                                 170656                       # Simulator instruction rate (inst/s)
host_mem_usage                                 727144                       # Number of bytes of host memory used
host_op_rate                                   334447                       # Simulator op (including micro ops) rate (op/s)
host_seconds                                    68.88                       # Real time elapsed on the host
host_tick_rate                               54459195                       # Simulator tick rate (ticks/s)
sim_freq                                 1000000000000                       # Frequency of simulated ticks
sim_insts                                    11753963                       # Number of instructions simulated
sim_ops                                      23035117                       # Number of ops (including micro ops) simulated
sim_seconds                                  0.003751                       # Number of seconds simulated
sim_ticks                                  3750896000                       # Number of ticks simulated
system.cpu.cc_regfile_reads                  12219849                       # number of cc regfile reads
system.cpu.cc_regfile_writes                  9782979                       # number of cc regfile writes
system.cpu.committedInsts                    11753963                       # Number of Instructions Simulated
system.cpu.committedOps                      23035117                       # Number of Ops (including micro ops) Simulated
system.cpu.cpi                               0.638235                       # CPI: Cycles Per Instruction
system.cpu.cpi_total                         0.638235                       # CPI: Total CPI of All Threads
system.cpu.fp_regfile_reads                   6463654                       # number of floating regfile reads
system.cpu.fp_regfile_writes                  4332247                       # number of floating regfile writes
system.cpu.idleCycles                          130768                       # Total number of cycles that the CPU has spent unscheduled due to idling
system.cpu.iew.branchMispredicts               122010                       # Number of branch mispredicts detected at execute
system.cpu.iew.exec_branches                  2435178                       # Number of branches executed
system.cpu.iew.exec_nop                             0                       # number of nop insts executed
system.cpu.iew.exec_rate                     3.388458                       # Inst execution rate
system.cpu.iew.exec_refs                      4908119                       # number of memory reference insts executed
system.cpu.iew.exec_stores                     535795                       # Number of stores executed
system.cpu.iew.exec_swp                             0                       # number of swp insts executed
system.cpu.iew.iewBlockCycles                  488576                       # Number of cycles IEW is blocking
system.cpu.iew.iewDispLoadInsts               4698333                       # Number of dispatched load instructions
system.cpu.iew.iewDispNonSpecInsts                194                       # Number of dispatched non-speculative instructions
system.cpu.iew.iewDispSquashedInsts             12483                       # Number of squashed instructions skipped by dispatch
system.cpu.iew.iewDispStoreInsts               717827                       # Number of dispatched store instructions
system.cpu.iew.iewDispatchedInsts            27286230                       # Number of instructions dispatched to IQ
system.cpu.iew.iewExecLoadInsts               4372324                       # Number of load instructions executed
system.cpu.iew.iewExecSquashedInsts            281485                       # Number of squashed instructions skipped in execute
system.cpu.iew.iewExecutedInsts              25419508                       # Number of executed instructions
system.cpu.iew.iewIQFullEvents                   1988                       # Number of times the IQ has become full, causing a stall
system.cpu.iew.iewIdleCycles                        0                       # Number of cycles IEW is idle
system.cpu.iew.iewLSQFullEvents                101395                       # Number of times the LSQ has become full, causing a stall
system.cpu.iew.iewSquashCycles                 116770                       # Number of cycles IEW is squashing
system.cpu.iew.iewUnblockCycles                105716                       # Number of cycles IEW is unblocking
system.cpu.iew.memOrderViolationEvents            300                       # Number of memory order violations
system.cpu.iew.predictedNotTakenIncorrect        41385                       # Number of branches that were predicted not taken incorrectly
system.cpu.iew.predictedTakenIncorrect          80625                       # Number of branches that were predicted taken incorrectly
system.cpu.iew.wb_consumers                  33884104                       # num instructions consuming a value
system.cpu.iew.wb_count                      25253689                       # cumulative count of insts written-back
system.cpu.iew.wb_fanout                     0.627585                       # average fanout of values written-back
system.cpu.iew.wb_producers                  21265149                       # num instructions producing a value
system.cpu.iew.wb_rate                       3.366354                       # insts written-back per cycle
system.cpu.iew.wb_sent                       25295838                       # cumulative count of insts sent to commit
system.cpu.int_regfile_reads                 31875987                       # number of integer regfile reads
system.cpu.int_regfile_writes                19227517                       # number of integer regfile writes
system.cpu.ipc                               1.566820                       # IPC: Instructions Per Cycle
system.cpu.ipc_total                         1.566820                       # IPC: Total IPC of All Threads
system.cpu.iq.FU_type_0::No_OpClass            165796      0.65%      0.65% # Type of FU issued
system.cpu.iq.FU_type_0::IntAlu              17456439     67.92%     68.57% # Type of FU issued
system.cpu.iq.FU_type_0::IntMult                18969      0.07%     68.64% # Type of FU issued
system.cpu.iq.FU_type_0::IntDiv                630589      2.45%     71.09% # Type of FU issued
system.cpu.iq.FU_type_0::FloatAdd              198417      0.77%     71.87% # Type of FU issued
system.cpu.iq.FU_type_0::FloatCmp                   0      0.00%     71.87% # Type of FU issued
system.cpu.iq.FU_type_0::FloatCvt                   0      0.00%     71.87% # Type of FU issued
system.cpu.iq.FU_type_0::FloatMult                  0      0.00%     71.87% # Type of FU issued
system.cpu.iq.FU_type_0::FloatMultAcc               0      0.00%     71.87% # Type of FU issued
system.cpu.iq.FU_type_0::FloatDiv                   0      0.00%     71.87% # Type of FU issued
system.cpu.iq.FU_type_0::FloatMisc                  0      0.00%     71.87% # Type of FU issued
system.cpu.iq.FU_type_0::FloatSqrt                  0      0.00%     71.87% # Type of FU issued
system.cpu.iq.FU_type_0::SimdAdd                 2446      0.01%     71.88% # Type of FU issued
system.cpu.iq.FU_type_0::SimdAddAcc                 0      0.00%     71.88% # Type of FU issued
system.cpu.iq.FU_type_0::SimdAlu               324138      1.26%     73.14% # Type of FU issued
system.cpu.iq.FU_type_0::SimdCmp                    0      0.00%     73.14% # Type of FU issued
system.cpu.iq.FU_type_0::SimdCvt                11148      0.04%     73.18% # Type of FU issued
system.cpu.iq.FU_type_0::SimdMisc               55473      0.22%     73.40% # Type of FU issued
system.cpu.iq.FU_type_0::SimdMult                   0      0.00%     73.40% # Type of FU issued
system.cpu.iq.FU_type_0::SimdMultAcc                0      0.00%     73.40% # Type of FU issued
system.cpu.iq.FU_type_0::SimdShift               1232      0.00%     73.40% # Type of FU issued
system.cpu.iq.FU_type_0::SimdShiftAcc               0      0.00%     73.40% # Type of FU issued
system.cpu.iq.FU_type_0::SimdDiv                    0      0.00%     73.40% # Type of FU issued
system.cpu.iq.FU_type_0::SimdSqrt                   0      0.00%     73.40% # Type of FU issued
system.cpu.iq.FU_type_0::SimdFloatAdd         1667728      6.49%     79.89% # Type of FU issued
system.cpu.iq.FU_type_0::SimdFloatAlu               0      0.00%     79.89% # Type of FU issued
system.cpu.iq.FU_type_0::SimdFloatCmp               0      0.00%     79.89% # Type of FU issued
system.cpu.iq.FU_type_0::SimdFloatCvt           98698      0.38%     80.27% # Type of FU issued
system.cpu.iq.FU_type_0::SimdFloatDiv           49208      0.19%     80.46% # Type of FU issued
system.cpu.iq.FU_type_0::SimdFloatMisc              0      0.00%     80.46% # Type of FU issued
system.cpu.iq.FU_type_0::SimdFloatMult          49152      0.19%     80.66% # Type of FU issued
system.cpu.iq.FU_type_0::SimdFloatMultAcc            0      0.00%     80.66% # Type of FU issued
system.cpu.iq.FU_type_0::SimdFloatSqrt              0      0.00%     80.66% # Type of FU issued
system.cpu.iq.FU_type_0::SimdReduceAdd              0      0.00%     80.66% # Type of FU issued
system.cpu.iq.FU_type_0::SimdReduceAlu              0      0.00%     80.66% # Type of FU issued
system.cpu.iq.FU_type_0::SimdReduceCmp              0      0.00%     80.66% # Type of FU issued
system.cpu.iq.FU_type_0::SimdFloatReduceAdd            0      0.00%     80.66% # Type of FU issued
system.cpu.iq.FU_type_0::SimdFloatReduceCmp            0      0.00%     80.66% # Type of FU issued
system.cpu.iq.FU_type_0::SimdAes                    0      0.00%     80.66% # Type of FU issued
system.cpu.iq.FU_type_0::SimdAesMix                 0      0.00%     80.66% # Type of FU issued
system.cpu.iq.FU_type_0::SimdSha1Hash               0      0.00%     80.66% # Type of FU issued
system.cpu.iq.FU_type_0::SimdSha1Hash2              0      0.00%     80.66% # Type of FU issued
system.cpu.iq.FU_type_0::SimdSha256Hash             0      0.00%     80.66% # Type of FU issued
system.cpu.iq.FU_type_0::SimdSha256Hash2            0      0.00%     80.66% # Type of FU issued
system.cpu.iq.FU_type_0::SimdShaSigma2              0      0.00%     80.66% # Type of FU issued
system.cpu.iq.FU_type_0::SimdShaSigma3              0      0.00%     80.66% # Type of FU issued
system.cpu.iq.FU_type_0::SimdPredAlu                0      0.00%     80.66% # Type of FU issued
system.cpu.iq.FU_type_0::MemRead              2554664      9.94%     90.60% # Type of FU issued
system.cpu.iq.FU_type_0::MemWrite              371673      1.45%     92.04% # Type of FU issued
system.cpu.iq.FU_type_0::FloatMemRead         1866330      7.26%     99.30% # Type of FU issued
system.cpu.iq.FU_type_0::FloatMemWrite         178893      0.70%    100.00% # Type of FU issued
system.cpu.iq.FU_type_0::IprAccess                  0      0.00%    100.00% # Type of FU issued
system.cpu.iq.FU_type_0::InstPrefetch               0      0.00%    100.00% # Type of FU issued
system.cpu.iq.FU_type_0::total               25700993                       # Type of FU issued
system.cpu.iq.fp_alu_accesses                 4663475                       # Number of floating point alu accesses
system.cpu.iq.fp_inst_queue_reads             9187076                       # Number of floating instruction queue reads
system.cpu.iq.fp_inst_queue_wakeup_accesses      4510462                       # Number of floating instruction queue wakeup accesses
system.cpu.iq.fp_inst_queue_writes            5042786                       # Number of floating instruction queue writes
system.cpu.iq.fu_busy_cnt                      292306                       # FU busy when requested
system.cpu.iq.fu_busy_rate                   0.011373                       # FU busy rate (busy events/executed inst)
system.cpu.iq.fu_full::No_OpClass                   0      0.00%      0.00% # attempts to use FU when none available
system.cpu.iq.fu_full::IntAlu                  125992     43.10%     43.10% # attempts to use FU when none available
system.cpu.iq.fu_full::IntMult                      0      0.00%     43.10% # attempts to use FU when none available
system.cpu.iq.fu_full::IntDiv                       0      0.00%     43.10% # attempts to use FU when none available
system.cpu.iq.fu_full::FloatAdd                     0      0.00%     43.10% # attempts to use FU when none available
system.cpu.iq.fu_full::FloatCmp                     0      0.00%     43.10% # attempts to use FU when none available
system.cpu.iq.fu_full::FloatCvt                     0      0.00%     43.10% # attempts to use FU when none available
system.cpu.iq.fu_full::FloatMult                    0      0.00%     43.10% # attempts to use FU when none available
system.cpu.iq.fu_full::FloatMultAcc                 0      0.00%     43.10% # attempts to use FU when none available
system.cpu.iq.fu_full::FloatDiv                     0      0.00%     43.10% # attempts to use FU when none available
system.cpu.iq.fu_full::FloatMisc                    0      0.00%     43.10% # attempts to use FU when none available
system.cpu.iq.fu_full::FloatSqrt                    0      0.00%     43.10% # attempts to use FU when none available
system.cpu.iq.fu_full::SimdAdd                      0      0.00%     43.10% # attempts to use FU when none available
system.cpu.iq.fu_full::SimdAddAcc                   0      0.00%     43.10% # attempts to use FU when none available
system.cpu.iq.fu_full::SimdAlu                    282      0.10%     43.20% # attempts to use FU when none available
system.cpu.iq.fu_full::SimdCmp                      0      0.00%     43.20% # attempts to use FU when none available
system.cpu.iq.fu_full::SimdCvt                     81      0.03%     43.23% # attempts to use FU when none available
system.cpu.iq.fu_full::SimdMisc                   122      0.04%     43.27% # attempts to use FU when none available
system.cpu.iq.fu_full::SimdMult                     0      0.00%     43.27% # attempts to use FU when none available
system.cpu.iq.fu_full::SimdMultAcc                  0      0.00%     43.27% # attempts to use FU when none available
system.cpu.iq.fu_full::SimdShift                    0      0.00%     43.27% # attempts to use FU when none available
system.cpu.iq.fu_full::SimdShiftAcc                 0      0.00%     43.27% # attempts to use FU when none available
system.cpu.iq.fu_full::SimdDiv                      0      0.00%     43.27% # attempts to use FU when none available
system.cpu.iq.fu_full::SimdSqrt                     0      0.00%     43.27% # attempts to use FU when none available
system.cpu.iq.fu_full::SimdFloatAdd                 0      0.00%     43.27% # attempts to use FU when none available
system.cpu.iq.fu_full::SimdFloatAlu                 0      0.00%     43.27% # attempts to use FU when none available
system.cpu.iq.fu_full::SimdFloatCmp                 0      0.00%     43.27% # attempts to use FU when none available
system.cpu.iq.fu_full::SimdFloatCvt                 0      0.00%     43.27% # attempts to use FU when none available
system.cpu.iq.fu_full::SimdFloatDiv               160      0.05%     43.32% # attempts to use FU when none available
system.cpu.iq.fu_full::SimdFloatMisc                0      0.00%     43.32% # attempts to use FU when none available
system.cpu.iq.fu_full::SimdFloatMult                0      0.00%     43.32% # attempts to use FU when none available
system.cpu.iq.fu_full::SimdFloatMultAcc             0      0.00%     43.32% # attempts to use FU when none available
system.cpu.iq.fu_full::SimdFloatSqrt                0      0.00%     43.32% # attempts to use FU when none available
system.cpu.iq.fu_full::SimdReduceAdd                0      0.00%     43.32% # attempts to use FU when none available
system.cpu.iq.fu_full::SimdReduceAlu                0      0.00%     43.32% # attempts to use FU when none available
system.cpu.iq.fu_full::SimdReduceCmp                0      0.00%     43.32% # attempts to use FU when none available
system.cpu.iq.fu_full::SimdFloatReduceAdd            0      0.00%     43.32% # attempts to use FU when none available
system.cpu.iq.fu_full::SimdFloatReduceCmp            0      0.00%     43.32% # attempts to use FU when none available
system.cpu.iq.fu_full::SimdAes                      0      0.00%     43.32% # attempts to use FU when none available
system.cpu.iq.fu_full::SimdAesMix                   0      0.00%     43.32% # attempts to use FU when none available
system.cpu.iq.fu_full::SimdSha1Hash                 0      0.00%     43.32% # attempts to use FU when none available
system.cpu.iq.fu_full::SimdSha1Hash2                0      0.00%     43.32% # attempts to use FU when none available
system.cpu.iq.fu_full::SimdSha256Hash               0      0.00%     43.32% # attempts to use FU when none available
system.cpu.iq.fu_full::SimdSha256Hash2              0      0.00%     43.32% # attempts to use FU when none available
system.cpu.iq.fu_full::SimdShaSigma2                0      0.00%     43.32% # attempts to use FU when none available
system.cpu.iq.fu_full::SimdShaSigma3                0      0.00%     43.32% # attempts to use FU when none available
system.cpu.iq.fu_full::SimdPredAlu                  0      0.00%     43.32% # attempts to use FU when none available
system.cpu.iq.fu_full::MemRead                  23778      8.13%     51.46% # attempts to use FU when none available
system.cpu.iq.fu_full::MemWrite                  1404      0.48%     51.94% # attempts to use FU when none available
system.cpu.iq.fu_full::FloatMemRead            136844     46.82%     98.75% # attempts to use FU when none available
system.cpu.iq.fu_full::FloatMemWrite             3643      1.25%    100.00% # attempts to use FU when none available
system.cpu.iq.fu_full::IprAccess                    0      0.00%    100.00% # attempts to use FU when none available
system.cpu.iq.fu_full::InstPrefetch                 0      0.00%    100.00% # attempts to use FU when none available
system.cpu.iq.int_alu_accesses               21164028                       # Number of integer alu accesses
system.cpu.iq.int_inst_queue_reads           49891032                       # Number of integer instruction queue reads
system.cpu.iq.int_inst_queue_wakeup_accesses     20743227                       # Number of integer instruction queue wakeup accesses
system.cpu.iq.int_inst_queue_writes          26494811                       # Number of integer instruction queue writes
system.cpu.iq.iqInstsAdded                   27283993                       # Number of instructions added to the IQ (excludes non-spec)
system.cpu.iq.iqInstsIssued                  25700993                       # Number of instructions issued
system.cpu.iq.iqNonSpecInstsAdded                2237                       # Number of non-speculative instructions added to the IQ
system.cpu.iq.iqSquashedInstsExamined         4251107                       # Number of squashed instructions iterated over during squash; mainly for profiling
system.cpu.iq.iqSquashedInstsIssued             12791                       # Number of squashed instructions issued
system.cpu.iq.iqSquashedNonSpecRemoved           2038                       # Number of squashed non-spec instructions that were removed
system.cpu.iq.iqSquashedOperandsExamined      6385468                       # Number of squashed operands that are examined and possibly removed from graph
system.cpu.iq.issued_per_cycle::samples       7371025                       # Number of insts issued each cycle
system.cpu.iq.issued_per_cycle::mean         3.486760                       # Number of insts issued each cycle
system.cpu.iq.issued_per_cycle::stdev        2.388478                       # Number of insts issued each cycle
system.cpu.iq.issued_per_cycle::underflows            0      0.00%      0.00% # Number of insts issued each cycle
system.cpu.iq.issued_per_cycle::0             1419445     19.26%     19.26% # Number of insts issued each cycle
system.cpu.iq.issued_per_cycle::1              403275      5.47%     24.73% # Number of insts issued each cycle
system.cpu.iq.issued_per_cycle::2              533865      7.24%     31.97% # Number of insts issued each cycle
system.cpu.iq.issued_per_cycle::3             1223145     16.59%     48.56% # Number of insts issued each cycle
system.cpu.iq.issued_per_cycle::4             1274317     17.29%     65.85% # Number of insts issued each cycle
system.cpu.iq.issued_per_cycle::5              845597     11.47%     77.32% # Number of insts issued each cycle
system.cpu.iq.issued_per_cycle::6              827706     11.23%     88.55% # Number of insts issued each cycle
system.cpu.iq.issued_per_cycle::7              480336      6.52%     95.07% # Number of insts issued each cycle
system.cpu.iq.issued_per_cycle::8              363339      4.93%    100.00% # Number of insts issued each cycle
system.cpu.iq.issued_per_cycle::overflows            0      0.00%    100.00% # Number of insts issued each cycle
system.cpu.iq.issued_per_cycle::min_value            0                       # Number of insts issued each cycle
system.cpu.iq.issued_per_cycle::max_value            8                       # Number of insts issued each cycle
system.cpu.iq.issued_per_cycle::total         7371025                       # Number of insts issued each cycle
system.cpu.iq.rate                           3.425980                       # Inst issue rate
system.cpu.iq.vec_alu_accesses                      0                       # Number of vector alu accesses
system.cpu.iq.vec_inst_queue_reads                  0                       # Number of vector instruction queue reads
system.cpu.iq.vec_inst_queue_wakeup_accesses            0                       # Number of vector instruction queue wakeup accesses
system.cpu.iq.vec_inst_queue_writes                 0                       # Number of vector instruction queue writes
system.cpu.memDep0.conflictingLoads            283467                       # Number of conflicting loads.
system.cpu.memDep0.conflictingStores           231404                       # Number of conflicting stores.
system.cpu.memDep0.insertedLoads              4698333                       # Number of loads inserted to the mem dependence unit.
system.cpu.memDep0.insertedStores              717827                       # Number of stores inserted to the mem dependence unit.
system.cpu.misc_regfile_reads                 9780244                       # number of misc regfile reads
system.cpu.numCycles                          7501793                       # number of cpu cycles simulated
system.cpu.numWorkItemsCompleted                    0                       # number of work items this cpu completed
system.cpu.numWorkItemsStarted                      0                       # number of work items this cpu started
system.cpu.timesIdled                            1348                       # Number of times that the entire CPU went into an idle state and unscheduled itself
system.cpu.workload.numSyscalls                   163                       # Number of system calls
system.membus.snoop_filter.hit_multi_requests            0                       # Number of requests hitting in the snoop filter with multiple (>1) holders of the requested data.
system.membus.snoop_filter.hit_multi_snoops            0                       # Number of snoops hitting in the snoop filter with multiple (>1) holders of the requested data.
system.membus.snoop_filter.hit_single_requests          184                       # Number of requests hitting in the snoop filter with a single holder of the requested data.
system.membus.snoop_filter.hit_single_snoops            0                       # Number of snoops hitting in the snoop filter with a single holder of the requested data.
system.membus.snoop_filter.tot_requests          4902                       # Total number of requests made to the snoop filter.
system.membus.snoop_filter.tot_snoops               0                       # Total number of snoops made to the snoop filter.
system.tol2bus.snoop_filter.hit_multi_requests            6                       # Number of requests hitting in the snoop filter with multiple (>1) holders of the requested data.
system.tol2bus.snoop_filter.hit_multi_snoops            0                       # Number of snoops hitting in the snoop filter with multiple (>1) holders of the requested data.
system.tol2bus.snoop_filter.hit_single_requests       129968                       # Number of requests hitting in the snoop filter with a single holder of the requested data.
system.tol2bus.snoop_filter.hit_single_snoops          124                       # Number of snoops hitting in the snoop filter with a single holder of the requested data.
system.tol2bus.snoop_filter.tot_requests       260961                       # Total number of requests made to the snoop filter.
system.tol2bus.snoop_filter.tot_snoops            124                       # Total number of snoops made to the snoop filter.
system.membus.trans_dist::ReadResp               2061                       # Transaction distribution
system.membus.trans_dist::WritebackDirty           28                       # Transaction distribution
system.membus.trans_dist::CleanEvict              156                       # Transaction distribution
system.membus.trans_dist::ReadExReq              2657                       # Transaction distribution
system.membus.trans_dist::ReadExResp             2657                       # Transaction distribution
system.membus.trans_dist::ReadSharedReq          2061                       # Transaction distribution
system.membus.pkt_count_system.l2.mem_side_port::system.mem_ctrls.port         9620                       # Packet count per connected requestor and responder (bytes)
system.membus.pkt_count_system.l2.mem_side_port::total         9620                       # Packet count per connected requestor and responder (bytes)
system.membus.pkt_count::total                   9620                       # Packet count per connected requestor and responder (bytes)
system.membus.pkt_size_system.l2.mem_side_port::system.mem_ctrls.port       303744                       # Cumulative packet size per connected requestor and responder (bytes)
system.membus.pkt_size_system.l2.mem_side_port::total       303744                       # Cumulative packet size per connected requestor and responder (bytes)
system.membus.pkt_size::total                  303744                       # Cumulative packet size per connected requestor and responder (bytes)
system.membus.snoops                                0                       # Total snoops (count)
system.membus.snoopTraffic                          0                       # Total snoop traffic (bytes)
system.membus.snoop_fanout::samples              4718                       # Request fanout histogram
system.membus.snoop_fanout::mean                    0                       # Request fanout histogram
system.membus.snoop_fanout::stdev                   0                       # Request fanout histogram
system.membus.snoop_fanout::underflows              0      0.00%      0.00% # Request fanout histogram
system.membus.snoop_fanout::0                    4718    100.00%    100.00% # Request fanout histogram
system.membus.snoop_fanout::1                       0      0.00%    100.00% # Request fanout histogram
system.membus.snoop_fanout::overflows               0      0.00%    100.00% # Request fanout histogram
system.membus.snoop_fanout::min_value               0                       # Request fanout histogram
system.membus.snoop_fanout::max_value               0                       # Request fanout histogram
system.membus.snoop_fanout::total                4718                       # Request fanout histogram
system.membus.reqLayer2.occupancy             6028000                       # Layer occupancy (ticks)
system.membus.reqLayer2.utilization               0.2                       # Layer utilization (%)
system.membus.respLayer1.occupancy           25000000                       # Layer occupancy (ticks)
system.membus.respLayer1.utilization              0.7                       # Layer utilization (%)
system.membus.power_state.pwrStateResidencyTicks::UNDEFINED   3750896000                       # Cumulative time (in ticks) in various power states
system.tol2bus.trans_dist::ReadResp            119934                       # Transaction distribution
system.tol2bus.trans_dist::WritebackDirty       124564                       # Transaction distribution
system.tol2bus.trans_dist::WritebackClean         2233                       # Transaction distribution
system.tol2bus.trans_dist::CleanEvict            3474                       # Transaction distribution
system.tol2bus.trans_dist::ReadExReq            11058                       # Transaction distribution
system.tol2bus.trans_dist::ReadExResp           11058                       # Transaction distribution
system.tol2bus.trans_dist::ReadCleanReq          2746                       # Transaction distribution
system.tol2bus.trans_dist::ReadSharedReq       117189                       # Transaction distribution
system.tol2bus.pkt_count_system.cpu.icache.mem_side_port::system.l2.cpu_side_port         7722                       # Packet count per connected requestor and responder (bytes)
system.tol2bus.pkt_count_system.cpu.dcache.mem_side_port::system.l2.cpu_side_port       384229                       # Packet count per connected requestor and responder (bytes)
system.tol2bus.pkt_count::total                391951                       # Packet count per connected requestor and responder (bytes)
system.tol2bus.pkt_size_system.cpu.icache.mem_side_port::system.l2.cpu_side_port       318464                       # Cumulative packet size per connected requestor and responder (bytes)
system.tol2bus.pkt_size_system.cpu.dcache.mem_side_port::system.l2.cpu_side_port     16178112                       # Cumulative packet size per connected requestor and responder (bytes)
system.tol2bus.pkt_size::total               16496576                       # Cumulative packet size per connected requestor and responder (bytes)
system.tol2bus.snoops                             305                       # Total snoops (count)
system.tol2bus.snoopTraffic                      1920                       # Total snoop traffic (bytes)
system.tol2bus.snoop_fanout::samples           131296                       # Request fanout histogram
system.tol2bus.snoop_fanout::mean            0.000990                       # Request fanout histogram
system.tol2bus.snoop_fanout::stdev           0.031451                       # Request fanout histogram
system.tol2bus.snoop_fanout::underflows             0      0.00%      0.00% # Request fanout histogram
system.tol2bus.snoop_fanout::0                 131166     99.90%     99.90% # Request fanout histogram
system.tol2bus.snoop_fanout::1                    130      0.10%    100.00% # Request fanout histogram
system.tol2bus.snoop_fanout::2                      0      0.00%    100.00% # Request fanout histogram
system.tol2bus.snoop_fanout::3                      0      0.00%    100.00% # Request fanout histogram
system.tol2bus.snoop_fanout::4                      0      0.00%    100.00% # Request fanout histogram
system.tol2bus.snoop_fanout::overflows              0      0.00%    100.00% # Request fanout histogram
system.tol2bus.snoop_fanout::min_value              0                       # Request fanout histogram
system.tol2bus.snoop_fanout::max_value              1                       # Request fanout histogram
system.tol2bus.snoop_fanout::total             131296                       # Request fanout histogram
system.tol2bus.reqLayer0.occupancy          257249500                       # Layer occupancy (ticks)
system.tol2bus.reqLayer0.utilization              6.9                       # Layer utilization (%)
system.tol2bus.respLayer1.occupancy         192370999                       # Layer occupancy (ticks)
system.tol2bus.respLayer1.utilization             5.1                       # Layer utilization (%)
system.tol2bus.respLayer0.occupancy           4118498                       # Layer occupancy (ticks)
system.tol2bus.respLayer0.utilization             0.1                       # Layer utilization (%)
system.tol2bus.power_state.pwrStateResidencyTicks::UNDEFINED   3750896000                       # Cumulative time (in ticks) in various power states
system.voltage_domain.voltage                       1                       # Voltage in Volts
system.clk_domain.clock                          1000                       # Clock period in ticks
system.l2.demand_hits::.cpu.inst                  946                       # number of demand (read+write) hits
system.l2.demand_hits::.cpu.data               125325                       # number of demand (read+write) hits
system.l2.demand_hits::total                   126271                       # number of demand (read+write) hits
system.l2.overall_hits::.cpu.inst                 946                       # number of overall hits
system.l2.overall_hits::.cpu.data              125325                       # number of overall hits
system.l2.overall_hits::total                  126271                       # number of overall hits
system.l2.demand_misses::.cpu.inst               1798                       # number of demand (read+write) misses
system.l2.demand_misses::.cpu.data               2922                       # number of demand (read+write) misses
system.l2.demand_misses::total                   4720                       # number of demand (read+write) misses
system.l2.overall_misses::.cpu.inst              1798                       # number of overall misses
system.l2.overall_misses::.cpu.data              2922                       # number of overall misses
system.l2.overall_misses::total                  4720                       # number of overall misses
system.l2.demand_miss_latency::.cpu.inst    141826000                       # number of demand (read+write) miss cycles
system.l2.demand_miss_latency::.cpu.data    224782000                       # number of demand (read+write) miss cycles
system.l2.demand_miss_latency::total        366608000                       # number of demand (read+write) miss cycles
system.l2.overall_miss_latency::.cpu.inst    141826000                       # number of overall miss cycles
system.l2.overall_miss_latency::.cpu.data    224782000                       # number of overall miss cycles
system.l2.overall_miss_latency::total       366608000                       # number of overall miss cycles
system.l2.demand_accesses::.cpu.inst             2744                       # number of demand (read+write) accesses
system.l2.demand_accesses::.cpu.data           128247                       # number of demand (read+write) accesses
system.l2.demand_accesses::total               130991                       # number of demand (read+write) accesses
system.l2.overall_accesses::.cpu.inst            2744                       # number of overall (read+write) accesses
system.l2.overall_accesses::.cpu.data          128247                       # number of overall (read+write) accesses
system.l2.overall_accesses::total              130991                       # number of overall (read+write) accesses
system.l2.demand_miss_rate::.cpu.inst        0.655248                       # miss rate for demand accesses
system.l2.demand_miss_rate::.cpu.data        0.022784                       # miss rate for demand accesses
system.l2.demand_miss_rate::total            0.036033                       # miss rate for demand accesses
system.l2.overall_miss_rate::.cpu.inst       0.655248                       # miss rate for overall accesses
system.l2.overall_miss_rate::.cpu.data       0.022784                       # miss rate for overall accesses
system.l2.overall_miss_rate::total           0.036033                       # miss rate for overall accesses
system.l2.demand_avg_miss_latency::.cpu.inst 78879.866518                       # average overall miss latency
system.l2.demand_avg_miss_latency::.cpu.data 76927.446954                       # average overall miss latency
system.l2.demand_avg_miss_latency::total 77671.186441                       # average overall miss latency
system.l2.overall_avg_miss_latency::.cpu.inst 78879.866518                       # average overall miss latency
system.l2.overall_avg_miss_latency::.cpu.data 76927.446954                       # average overall miss latency
system.l2.overall_avg_miss_latency::total 77671.186441                       # average overall miss latency
system.l2.blocked_cycles::no_mshrs                  0                       # number of cycles access was blocked
system.l2.blocked_cycles::no_targets                0                       # number of cycles access was blocked
system.l2.blocked::no_mshrs                         0                       # number of cycles access was blocked
system.l2.blocked::no_targets                       0                       # number of cycles access was blocked
system.l2.avg_blocked_cycles::no_mshrs            nan                       # average number of cycles each access was blocked
system.l2.avg_blocked_cycles::no_targets          nan                       # average number of cycles each access was blocked
system.l2.writebacks::.writebacks                  28                       # number of writebacks
system.l2.writebacks::total                        28                       # number of writebacks
system.l2.demand_mshr_hits::.cpu.data               1                       # number of demand (read+write) MSHR hits
system.l2.demand_mshr_hits::total                   1                       # number of demand (read+write) MSHR hits
system.l2.overall_mshr_hits::.cpu.data              1                       # number of overall MSHR hits
system.l2.overall_mshr_hits::total                  1                       # number of overall MSHR hits
system.l2.demand_mshr_misses::.cpu.inst          1798                       # number of demand (read+write) MSHR misses
system.l2.demand_mshr_misses::.cpu.data          2921                       # number of demand (read+write) MSHR misses
system.l2.demand_mshr_misses::total              4719                       # number of demand (read+write) MSHR misses
system.l2.overall_mshr_misses::.cpu.inst         1798                       # number of overall MSHR misses
system.l2.overall_mshr_misses::.cpu.data         2921                       # number of overall MSHR misses
system.l2.overall_mshr_misses::total             4719                       # number of overall MSHR misses
system.l2.demand_mshr_miss_latency::.cpu.inst    123856000                       # number of demand (read+write) MSHR miss cycles
system.l2.demand_mshr_miss_latency::.cpu.data    195512500                       # number of demand (read+write) MSHR miss cycles
system.l2.demand_mshr_miss_latency::total    319368500                       # number of demand (read+write) MSHR miss cycles
system.l2.overall_mshr_miss_latency::.cpu.inst    123856000                       # number of overall MSHR miss cycles
system.l2.overall_mshr_miss_latency::.cpu.data    195512500                       # number of overall MSHR miss cycles
system.l2.overall_mshr_miss_latency::total    319368500                       # number of overall MSHR miss cycles
system.l2.demand_mshr_miss_rate::.cpu.inst     0.655248                       # mshr miss rate for demand accesses
system.l2.demand_mshr_miss_rate::.cpu.data     0.022776                       # mshr miss rate for demand accesses
system.l2.demand_mshr_miss_rate::total       0.036025                       # mshr miss rate for demand accesses
system.l2.overall_mshr_miss_rate::.cpu.inst     0.655248                       # mshr miss rate for overall accesses
system.l2.overall_mshr_miss_rate::.cpu.data     0.022776                       # mshr miss rate for overall accesses
system.l2.overall_mshr_miss_rate::total      0.036025                       # mshr miss rate for overall accesses
system.l2.demand_avg_mshr_miss_latency::.cpu.inst 68885.428254                       # average overall mshr miss latency
system.l2.demand_avg_mshr_miss_latency::.cpu.data 66933.413215                       # average overall mshr miss latency
system.l2.demand_avg_mshr_miss_latency::total 67677.156177                       # average overall mshr miss latency
system.l2.overall_avg_mshr_miss_latency::.cpu.inst 68885.428254                       # average overall mshr miss latency
system.l2.overall_avg_mshr_miss_latency::.cpu.data 66933.413215                       # average overall mshr miss latency
system.l2.overall_avg_mshr_miss_latency::total 67677.156177                       # average overall mshr miss latency
system.l2.replacements                            303                       # number of replacements
system.l2.WritebackDirty_hits::.writebacks       124536                       # number of WritebackDirty hits
system.l2.WritebackDirty_hits::total           124536                       # number of WritebackDirty hits
system.l2.WritebackDirty_accesses::.writebacks       124536                       # number of WritebackDirty accesses(hits+misses)
system.l2.WritebackDirty_accesses::total       124536                       # number of WritebackDirty accesses(hits+misses)
system.l2.WritebackClean_hits::.writebacks         2231                       # number of WritebackClean hits
system.l2.WritebackClean_hits::total             2231                       # number of WritebackClean hits
system.l2.WritebackClean_accesses::.writebacks         2231                       # number of WritebackClean accesses(hits+misses)
system.l2.WritebackClean_accesses::total         2231                       # number of WritebackClean accesses(hits+misses)
system.l2.CleanEvict_mshr_misses::.writebacks            5                       # number of CleanEvict MSHR misses
system.l2.CleanEvict_mshr_misses::total             5                       # number of CleanEvict MSHR misses
system.l2.CleanEvict_mshr_miss_rate::.writebacks          inf                       # mshr miss rate for CleanEvict accesses
system.l2.CleanEvict_mshr_miss_rate::total          inf                       # mshr miss rate for CleanEvict accesses
system.l2.ReadExReq_hits::.cpu.data              8401                       # number of ReadExReq hits
system.l2.ReadExReq_hits::total                  8401                       # number of ReadExReq hits
system.l2.ReadExReq_misses::.cpu.data            2657                       # number of ReadExReq misses
system.l2.ReadExReq_misses::total                2657                       # number of ReadExReq misses
system.l2.ReadExReq_miss_latency::.cpu.data    201050500                       # number of ReadExReq miss cycles
system.l2.ReadExReq_miss_latency::total     201050500                       # number of ReadExReq miss cycles
system.l2.ReadExReq_accesses::.cpu.data         11058                       # number of ReadExReq accesses(hits+misses)
system.l2.ReadExReq_accesses::total             11058                       # number of ReadExReq accesses(hits+misses)
system.l2.ReadExReq_miss_rate::.cpu.data     0.240279                       # miss rate for ReadExReq accesses
system.l2.ReadExReq_miss_rate::total         0.240279                       # miss rate for ReadExReq accesses
system.l2.ReadExReq_avg_miss_latency::.cpu.data 75668.234851                       # average ReadExReq miss latency
system.l2.ReadExReq_avg_miss_latency::total 75668.234851                       # average ReadExReq miss latency
system.l2.ReadExReq_mshr_misses::.cpu.data         2657                       # number of ReadExReq MSHR misses
system.l2.ReadExReq_mshr_misses::total           2657                       # number of ReadExReq MSHR misses
system.l2.ReadExReq_mshr_miss_latency::.cpu.data    174480500                       # number of ReadExReq MSHR miss cycles
system.l2.ReadExReq_mshr_miss_latency::total    174480500                       # number of ReadExReq MSHR miss cycles
system.l2.ReadExReq_mshr_miss_rate::.cpu.data     0.240279                       # mshr miss rate for ReadExReq accesses
system.l2.ReadExReq_mshr_miss_rate::total     0.240279                       # mshr miss rate for ReadExReq accesses
system.l2.ReadExReq_avg_mshr_miss_latency::.cpu.data 65668.234851                       # average ReadExReq mshr miss latency
system.l2.ReadExReq_avg_mshr_miss_latency::total 65668.234851                       # average ReadExReq mshr miss latency
system.l2.ReadCleanReq_hits::.cpu.inst            946                       # number of ReadCleanReq hits
system.l2.ReadCleanReq_hits::total                946                       # number of ReadCleanReq hits
system.l2.ReadCleanReq_misses::.cpu.inst         1798                       # number of ReadCleanReq misses
system.l2.ReadCleanReq_misses::total             1798                       # number of ReadCleanReq misses
system.l2.ReadCleanReq_miss_latency::.cpu.inst    141826000                       # number of ReadCleanReq miss cycles
system.l2.ReadCleanReq_miss_latency::total    141826000                       # number of ReadCleanReq miss cycles
system.l2.ReadCleanReq_accesses::.cpu.inst         2744                       # number of ReadCleanReq accesses(hits+misses)
system.l2.ReadCleanReq_accesses::total           2744                       # number of ReadCleanReq accesses(hits+misses)
system.l2.ReadCleanReq_miss_rate::.cpu.inst     0.655248                       # miss rate for ReadCleanReq accesses
system.l2.ReadCleanReq_miss_rate::total      0.655248                       # miss rate for ReadCleanReq accesses
system.l2.ReadCleanReq_avg_miss_latency::.cpu.inst 78879.866518                       # average ReadCleanReq miss latency
system.l2.ReadCleanReq_avg_miss_latency::total 78879.866518                       # average ReadCleanReq miss latency
system.l2.ReadCleanReq_mshr_misses::.cpu.inst         1798                       # number of ReadCleanReq MSHR misses
system.l2.ReadCleanReq_mshr_misses::total         1798                       # number of ReadCleanReq MSHR misses
system.l2.ReadCleanReq_mshr_miss_latency::.cpu.inst    123856000                       # number of ReadCleanReq MSHR miss cycles
system.l2.ReadCleanReq_mshr_miss_latency::total    123856000                       # number of ReadCleanReq MSHR miss cycles
system.l2.ReadCleanReq_mshr_miss_rate::.cpu.inst     0.655248                       # mshr miss rate for ReadCleanReq accesses
system.l2.ReadCleanReq_mshr_miss_rate::total     0.655248                       # mshr miss rate for ReadCleanReq accesses
system.l2.ReadCleanReq_avg_mshr_miss_latency::.cpu.inst 68885.428254                       # average ReadCleanReq mshr miss latency
system.l2.ReadCleanReq_avg_mshr_miss_latency::total 68885.428254                       # average ReadCleanReq mshr miss latency
system.l2.ReadSharedReq_hits::.cpu.data        116924                       # number of ReadSharedReq hits
system.l2.ReadSharedReq_hits::total            116924                       # number of ReadSharedReq hits
system.l2.ReadSharedReq_misses::.cpu.data          265                       # number of ReadSharedReq misses
system.l2.ReadSharedReq_misses::total             265                       # number of ReadSharedReq misses
system.l2.ReadSharedReq_miss_latency::.cpu.data     23731500                       # number of ReadSharedReq miss cycles
system.l2.ReadSharedReq_miss_latency::total     23731500                       # number of ReadSharedReq miss cycles
system.l2.ReadSharedReq_accesses::.cpu.data       117189                       # number of ReadSharedReq accesses(hits+misses)
system.l2.ReadSharedReq_accesses::total        117189                       # number of ReadSharedReq accesses(hits+misses)
system.l2.ReadSharedReq_miss_rate::.cpu.data     0.002261                       # miss rate for ReadSharedReq accesses
system.l2.ReadSharedReq_miss_rate::total     0.002261                       # miss rate for ReadSharedReq accesses
system.l2.ReadSharedReq_avg_miss_latency::.cpu.data 89552.830189                       # average ReadSharedReq miss latency
system.l2.ReadSharedReq_avg_miss_latency::total 89552.830189                       # average ReadSharedReq miss latency
system.l2.ReadSharedReq_mshr_hits::.cpu.data            1                       # number of ReadSharedReq MSHR hits
system.l2.ReadSharedReq_mshr_hits::total            1                       # number of ReadSharedReq MSHR hits
system.l2.ReadSharedReq_mshr_misses::.cpu.data          264                       # number of ReadSharedReq MSHR misses
system.l2.ReadSharedReq_mshr_misses::total          264                       # number of ReadSharedReq MSHR misses
system.l2.ReadSharedReq_mshr_miss_latency::.cpu.data     21032000                       # number of ReadSharedReq MSHR miss cycles
system.l2.ReadSharedReq_mshr_miss_latency::total     21032000                       # number of ReadSharedReq MSHR miss cycles
system.l2.ReadSharedReq_mshr_miss_rate::.cpu.data     0.002253                       # mshr miss rate for ReadSharedReq accesses
system.l2.ReadSharedReq_mshr_miss_rate::total     0.002253                       # mshr miss rate for ReadSharedReq accesses
system.l2.ReadSharedReq_avg_mshr_miss_latency::.cpu.data 79666.666667                       # average ReadSharedReq mshr miss latency
system.l2.ReadSharedReq_avg_mshr_miss_latency::total 79666.666667                       # average ReadSharedReq mshr miss latency
system.l2.power_state.pwrStateResidencyTicks::UNDEFINED   3750896000                       # Cumulative time (in ticks) in various power states
system.l2.tags.tagsinuse                  3975.742618                       # Cycle average of tags in use
system.l2.tags.total_refs                      260947                       # Total number of references to valid blocks.
system.l2.tags.sampled_refs                      4805                       # Sample count of references to valid blocks.
system.l2.tags.avg_refs                     54.307388                       # Average number of references to valid blocks.
system.l2.tags.warmup_cycle                     77000                       # Cycle when the warmup percentage was hit.
system.l2.tags.occ_blocks::.writebacks      44.116644                       # Average occupied blocks per requestor
system.l2.tags.occ_blocks::.cpu.inst      1448.489205                       # Average occupied blocks per requestor
system.l2.tags.occ_blocks::.cpu.data      2483.136769                       # Average occupied blocks per requestor
system.l2.tags.occ_percent::.writebacks      0.005385                       # Average percentage of cache occupancy
system.l2.tags.occ_percent::.cpu.inst        0.176818                       # Average percentage of cache occupancy
system.l2.tags.occ_percent::.cpu.data        0.303117                       # Average percentage of cache occupancy
system.l2.tags.occ_percent::total            0.485320                       # Average percentage of cache occupancy
system.l2.tags.occ_task_id_blocks::1024          4502                       # Occupied blocks per task id
system.l2.tags.age_task_id_blocks_1024::0           93                       # Occupied blocks per task id
system.l2.tags.age_task_id_blocks_1024::3         4409                       # Occupied blocks per task id
system.l2.tags.occ_task_id_percent::1024     0.549561                       # Percentage of cache occupancy per task id
system.l2.tags.tag_accesses                    526713                       # Number of tag accesses
system.l2.tags.data_accesses                   526713                       # Number of data accesses
system.l2.tags.power_state.pwrStateResidencyTicks::UNDEFINED   3750896000                       # Cumulative time (in ticks) in various power states
system.cpu_voltage_domain.voltage                   1                       # Voltage in Volts
system.mem_ctrls.avgPriority_.writebacks::samples        26.00                       # Average QoS priority value for accepted requests
system.mem_ctrls.avgPriority_.cpu.inst::samples      1797.00                       # Average QoS priority value for accepted requests
system.mem_ctrls.avgPriority_.cpu.data::samples      2917.00                       # Average QoS priority value for accepted requests
system.mem_ctrls.priorityMinLatency      0.000000018750                       # per QoS priority minimum request to response latency (s)
system.mem_ctrls.priorityMaxLatency      0.000000586500                       # per QoS priority maximum request to response latency (s)
system.mem_ctrls.numReadWriteTurnArounds            0                       # Number of turnarounds from READ to WRITE
system.mem_ctrls.numWriteReadTurnArounds            0                       # Number of turnarounds from WRITE to READ
system.mem_ctrls.numStayReadState               10361                       # Number of times bus staying in READ state
system.mem_ctrls.numStayWriteState                  0                       # Number of times bus staying in WRITE state
system.mem_ctrls.readReqs                        4718                       # Number of read requests accepted
system.mem_ctrls.writeReqs                         28                       # Number of write requests accepted
system.mem_ctrls.readBursts                      4718                       # Number of controller read bursts, including those serviced by the write queue
system.mem_ctrls.writeBursts                       28                       # Number of controller write bursts, including those merged in the write queue
system.mem_ctrls.servicedByWrQ                      4                       # Number of controller read bursts serviced by the write queue
system.mem_ctrls.mergedWrBursts                     2                       # Number of controller write bursts merged with an existing one
system.mem_ctrls.neitherReadNorWriteReqs            0                       # Number of requests that are neither read nor write
system.mem_ctrls.avgRdQLen                       1.06                       # Average read queue length when enqueuing
system.mem_ctrls.avgWrQLen                      13.67                       # Average write queue length when enqueuing
system.mem_ctrls.numRdRetry                         0                       # Number of times read queue was full causing retry
system.mem_ctrls.numWrRetry                         0                       # Number of times write queue was full causing retry
system.mem_ctrls.readPktSize::0                     0                       # Read request sizes (log2)
system.mem_ctrls.readPktSize::1                     0                       # Read request sizes (log2)
system.mem_ctrls.readPktSize::2                     0                       # Read request sizes (log2)
system.mem_ctrls.readPktSize::3                     0                       # Read request sizes (log2)
system.mem_ctrls.readPktSize::4                     0                       # Read request sizes (log2)
system.mem_ctrls.readPktSize::5                     0                       # Read request sizes (log2)
system.mem_ctrls.readPktSize::6                  4718                       # Read request sizes (log2)
system.mem_ctrls.writePktSize::0                    0                       # Write request sizes (log2)
system.mem_ctrls.writePktSize::1                    0                       # Write request sizes (log2)
system.mem_ctrls.writePktSize::2                    0                       # Write request sizes (log2)
system.mem_ctrls.writePktSize::3                    0                       # Write request sizes (log2)
system.mem_ctrls.writePktSize::4                    0                       # Write request sizes (log2)
system.mem_ctrls.writePktSize::5                    0                       # Write request sizes (log2)
system.mem_ctrls.writePktSize::6                   28                       # Write request sizes (log2)
system.mem_ctrls.rdQLenPdf::0                    3945                       # What read queue length does an incoming req see
system.mem_ctrls.rdQLenPdf::1                     605                       # What read queue length does an incoming req see
system.mem_ctrls.rdQLenPdf::2                     136                       # What read queue length does an incoming req see
system.mem_ctrls.rdQLenPdf::3                      22                       # What read queue length does an incoming req see
system.mem_ctrls.rdQLenPdf::4                       6                       # What read queue length does an incoming req see
system.mem_ctrls.rdQLenPdf::5                       0                       # What read queue length does an incoming req see
system.mem_ctrls.rdQLenPdf::6                       0                       # What read queue length does an incoming req see
system.mem_ctrls.rdQLenPdf::7                       0                       # What read queue length does an incoming req see
system.mem_ctrls.rdQLenPdf::8                       0                       # What read queue length does an incoming req see
system.mem_ctrls.rdQLenPdf::9                       0                       # What read queue length does an incoming req see
system.mem_ctrls.rdQLenPdf::10                      0                       # What read queue length does an incoming req see
system.mem_ctrls.rdQLenPdf::11                      0                       # What read queue length does an incoming req see
system.mem_ctrls.rdQLenPdf::12                      0                       # What read queue length does an incoming req see
system.mem_ctrls.rdQLenPdf::13                      0                       # What read queue length does an incoming req see
system.mem_ctrls.rdQLenPdf::14                      0                       # What read queue length does an incoming req see
system.mem_ctrls.rdQLenPdf::15                      0                       # What read queue length does an incoming req see
system.mem_ctrls.rdQLenPdf::16                      0                       # What read queue length does an incoming req see
system.mem_ctrls.rdQLenPdf::17                      0                       # What read queue length does an incoming req see
system.mem_ctrls.rdQLenPdf::18                      0                       # What read queue length does an incoming req see
system.mem_ctrls.rdQLenPdf::19                      0                       # What read queue length does an incoming req see
system.mem_ctrls.rdQLenPdf::20                      0                       # What read queue length does an incoming req see
system.mem_ctrls.rdQLenPdf::21                      0                       # What read queue length does an incoming req see
system.mem_ctrls.rdQLenPdf::22                      0                       # What read queue length does an incoming req see
system.mem_ctrls.rdQLenPdf::23                      0                       # What read queue length does an incoming req see
system.mem_ctrls.rdQLenPdf::24                      0                       # What read queue length does an incoming req see
system.mem_ctrls.rdQLenPdf::25                      0                       # What read queue length does an incoming req see
system.mem_ctrls.rdQLenPdf::26                      0                       # What read queue length does an incoming req see
system.mem_ctrls.rdQLenPdf::27                      0                       # What read queue length does an incoming req see
system.mem_ctrls.rdQLenPdf::28                      0                       # What read queue length does an incoming req see
system.mem_ctrls.rdQLenPdf::29                      0                       # What read queue length does an incoming req see
system.mem_ctrls.rdQLenPdf::30                      0                       # What read queue length does an incoming req see
system.mem_ctrls.rdQLenPdf::31                      0                       # What read queue length does an incoming req see
system.mem_ctrls.wrQLenPdf::0                       1                       # What write queue length does an incoming req see
system.mem_ctrls.wrQLenPdf::1                       1                       # What write queue length does an incoming req see
system.mem_ctrls.wrQLenPdf::2                       1                       # What write queue length does an incoming req see
system.mem_ctrls.wrQLenPdf::3                       1                       # What write queue length does an incoming req see
system.mem_ctrls.wrQLenPdf::4                       1                       # What write queue length does an incoming req see
system.mem_ctrls.wrQLenPdf::5                       1                       # What write queue length does an incoming req see
system.mem_ctrls.wrQLenPdf::6                       1                       # What write queue length does an incoming req see
system.mem_ctrls.wrQLenPdf::7                       1                       # What write queue length does an incoming req see
system.mem_ctrls.wrQLenPdf::8                       1                       # What write queue length does an incoming req see
system.mem_ctrls.wrQLenPdf::9                       1                       # What write queue length does an incoming req see
system.mem_ctrls.wrQLenPdf::10                      1                       # What write queue length does an incoming req see
system.mem_ctrls.wrQLenPdf::11                      1                       # What write queue length does an incoming req see
system.mem_ctrls.wrQLenPdf::12                      1                       # What write queue length does an incoming req see
system.mem_ctrls.wrQLenPdf::13                      1                       # What write queue length does an incoming req see
system.mem_ctrls.wrQLenPdf::14                      1                       # What write queue length does an incoming req see
system.mem_ctrls.wrQLenPdf::15                      1                       # What write queue length does an incoming req see
system.mem_ctrls.wrQLenPdf::16                      1                       # What write queue length does an incoming req see
system.mem_ctrls.wrQLenPdf::17                      1                       # What write queue length does an incoming req see
system.mem_ctrls.wrQLenPdf::18                      1                       # What write queue length does an incoming req see
system.mem_ctrls.wrQLenPdf::19                      1                       # What write queue length does an incoming req see
system.mem_ctrls.wrQLenPdf::20                      1                       # What write queue length does an incoming req see
system.mem_ctrls.wrQLenPdf::21                      1                       # What write queue length does an incoming req see
system.mem_ctrls.wrQLenPdf::22                      1                       # What write queue length does an incoming req see
system.mem_ctrls.wrQLenPdf::23                      1                       # What write queue length does an incoming req see
system.mem_ctrls.wrQLenPdf::24                      1                       # What write queue length does an incoming req see
system.mem_ctrls.wrQLenPdf::25                      1                       # What write queue length does an incoming req see
system.mem_ctrls.wrQLenPdf::26                      0                       # What write queue length does an incoming req see
system.mem_ctrls.wrQLenPdf::27                      0                       # What write queue length does an incoming req see
system.mem_ctrls.wrQLenPdf::28                      0                       # What write queue length does an incoming req see
system.mem_ctrls.wrQLenPdf::29                      0                       # What write queue length does an incoming req see
system.mem_ctrls.wrQLenPdf::30                      0                       # What write queue length does an incoming req see
system.mem_ctrls.wrQLenPdf::31                      0                       # What write queue length does an incoming req see
system.mem_ctrls.wrQLenPdf::32                      0                       # What write queue length does an incoming req see
system.mem_ctrls.wrQLenPdf::33                      0                       # What write queue length does an incoming req see
system.mem_ctrls.wrQLenPdf::34                      0                       # What write queue length does an incoming req see
system.mem_ctrls.wrQLenPdf::35                      0                       # What write queue length does an incoming req see
system.mem_ctrls.wrQLenPdf::36                      0                       # What write queue length does an incoming req see
system.mem_ctrls.wrQLenPdf::37                      0                       # What write queue length does an incoming req see
system.mem_ctrls.wrQLenPdf::38                      0                       # What write queue length does an incoming req see
system.mem_ctrls.wrQLenPdf::39                      0                       # What write queue length does an incoming req see
system.mem_ctrls.wrQLenPdf::40                      0                       # What write queue length does an incoming req see
system.mem_ctrls.wrQLenPdf::41                      0                       # What write queue length does an incoming req see
system.mem_ctrls.wrQLenPdf::42                      0                       # What write queue length does an incoming req see
system.mem_ctrls.wrQLenPdf::43                      0                       # What write queue length does an incoming req see
system.mem_ctrls.wrQLenPdf::44                      0                       # What write queue length does an incoming req see
system.mem_ctrls.wrQLenPdf::45                      0                       # What write queue length does an incoming req see
system.mem_ctrls.wrQLenPdf::46                      0                       # What write queue length does an incoming req see
system.mem_ctrls.wrQLenPdf::47                      0                       # What write queue length does an incoming req see
system.mem_ctrls.wrQLenPdf::48                      0                       # What write queue length does an incoming req see
system.mem_ctrls.wrQLenPdf::49                      0                       # What write queue length does an incoming req see
system.mem_ctrls.wrQLenPdf::50                      0                       # What write queue length does an incoming req see
system.mem_ctrls.wrQLenPdf::51                      0                       # What write queue length does an incoming req see
system.mem_ctrls.wrQLenPdf::52                      0                       # What write queue length does an incoming req see
system.mem_ctrls.wrQLenPdf::53                      0                       # What write queue length does an incoming req see
system.mem_ctrls.wrQLenPdf::54                      0                       # What write queue length does an incoming req see
system.mem_ctrls.wrQLenPdf::55                      0                       # What write queue length does an incoming req see
system.mem_ctrls.wrQLenPdf::56                      0                       # What write queue length does an incoming req see
system.mem_ctrls.wrQLenPdf::57                      0                       # What write queue length does an incoming req see
system.mem_ctrls.wrQLenPdf::58                      0                       # What write queue length does an incoming req see
system.mem_ctrls.wrQLenPdf::59                      0                       # What write queue length does an incoming req see
system.mem_ctrls.wrQLenPdf::60                      0                       # What write queue length does an incoming req see
system.mem_ctrls.wrQLenPdf::61                      0                       # What write queue length does an incoming req see
system.mem_ctrls.wrQLenPdf::62                      0                       # What write queue length does an incoming req see
system.mem_ctrls.wrQLenPdf::63                      0                       # What write queue length does an incoming req see
system.mem_ctrls.bytesReadWrQ                     256                       # Total number of bytes read from write queue
system.mem_ctrls.bytesReadSys                  301952                       # Total read bytes from the system interface side
system.mem_ctrls.bytesWrittenSys                 1792                       # Total written bytes from the system interface side
system.mem_ctrls.avgRdBWSys                     80.50                       # Average system read bandwidth in MiByte/s
system.mem_ctrls.avgWrBWSys                      0.48                       # Average system write bandwidth in MiByte/s
system.mem_ctrls.totGap                    3750807000                       # Total gap between requests
system.mem_ctrls.avgGap                     790309.10                       # Average gap between requests
system.mem_ctrls.requestorReadBytes::.cpu.inst       115008                       # Per-requestor bytes read from memory
system.mem_ctrls.requestorReadBytes::.cpu.data       186688                       # Per-requestor bytes read from memory
system.mem_ctrls.requestorReadRate::.cpu.inst 30661473.951823778450                       # Per-requestor bytes read from memory rate (Bytes/sec)
system.mem_ctrls.requestorReadRate::.cpu.data 49771574.578447386622                       # Per-requestor bytes read from memory rate (Bytes/sec)
system.mem_ctrls.requestorReadAccesses::.cpu.inst         1797                       # Per-requestor read serviced memory accesses
system.mem_ctrls.requestorReadAccesses::.cpu.data         2921                       # Per-requestor read serviced memory accesses
system.mem_ctrls.requestorWriteAccesses::.writebacks           28                       # Per-requestor write serviced memory accesses
system.mem_ctrls.requestorReadTotalLat::.cpu.inst     49962000                       # Per-requestor read total memory access latency
system.mem_ctrls.requestorReadTotalLat::.cpu.data     75764750                       # Per-requestor read total memory access latency
system.mem_ctrls.requestorReadAvgLat::.cpu.inst     27803.01                       # Per-requestor read average memory access latency
system.mem_ctrls.requestorReadAvgLat::.cpu.data     25937.95                       # Per-requestor read average memory access latency
system.mem_ctrls.requestorWriteAvgLat::.writebacks         0.00                       # Per-requestor write average memory access latency
system.mem_ctrls.dram.bytes_read::.cpu.inst       115008                       # Number of bytes read from this memory
system.mem_ctrls.dram.bytes_read::.cpu.data       186944                       # Number of bytes read from this memory
system.mem_ctrls.dram.bytes_read::total        301952                       # Number of bytes read from this memory
system.mem_ctrls.dram.bytes_inst_read::.cpu.inst       115008                       # Number of instructions bytes read from this memory
system.mem_ctrls.dram.bytes_inst_read::total       115008                       # Number of instructions bytes read from this memory
system.mem_ctrls.dram.bytes_written::.writebacks         1792                       # Number of bytes written to this memory
system.mem_ctrls.dram.bytes_written::total         1792                       # Number of bytes written to this memory
system.mem_ctrls.dram.num_reads::.cpu.inst         1797                       # Number of read requests responded to by this memory
system.mem_ctrls.dram.num_reads::.cpu.data         2921                       # Number of read requests responded to by this memory
system.mem_ctrls.dram.num_reads::total           4718                       # Number of read requests responded to by this memory
system.mem_ctrls.dram.num_writes::.writebacks           28                       # Number of write requests responded to by this memory
system.mem_ctrls.dram.num_writes::total            28                       # Number of write requests responded to by this memory
system.mem_ctrls.dram.bw_read::.cpu.inst     30661474                       # Total read bandwidth from this memory (bytes/s)
system.mem_ctrls.dram.bw_read::.cpu.data     49839825                       # Total read bandwidth from this memory (bytes/s)
system.mem_ctrls.dram.bw_read::total         80501299                       # Total read bandwidth from this memory (bytes/s)
system.mem_ctrls.dram.bw_inst_read::.cpu.inst     30661474                       # Instruction read bandwidth from this memory (bytes/s)
system.mem_ctrls.dram.bw_inst_read::total     30661474                       # Instruction read bandwidth from this memory (bytes/s)
system.mem_ctrls.dram.bw_write::.writebacks       477753                       # Write bandwidth from this memory (bytes/s)
system.mem_ctrls.dram.bw_write::total          477753                       # Write bandwidth from this memory (bytes/s)
system.mem_ctrls.dram.bw_total::.writebacks       477753                       # Total bandwidth to/from this memory (bytes/s)
system.mem_ctrls.dram.bw_total::.cpu.inst     30661474                       # Total bandwidth to/from this memory (bytes/s)
system.mem_ctrls.dram.bw_total::.cpu.data     49839825                       # Total bandwidth to/from this memory (bytes/s)
system.mem_ctrls.dram.bw_total::total        80979051                       # Total bandwidth to/from this memory (bytes/s)
system.mem_ctrls.dram.readBursts                 4714                       # Number of DRAM read bursts
system.mem_ctrls.dram.writeBursts                   0                       # Number of DRAM write bursts
system.mem_ctrls.dram.perBankRdBursts::0          324                       # Per bank write bursts
system.mem_ctrls.dram.perBankRdBursts::1          376                       # Per bank write bursts
system.mem_ctrls.dram.perBankRdBursts::2          444                       # Per bank write bursts
system.mem_ctrls.dram.perBankRdBursts::3          427                       # Per bank write bursts
system.mem_ctrls.dram.perBankRdBursts::4          348                       # Per bank write bursts
system.mem_ctrls.dram.perBankRdBursts::5          388                       # Per bank write bursts
system.mem_ctrls.dram.perBankRdBursts::6          254                       # Per bank write bursts
system.mem_ctrls.dram.perBankRdBursts::7          173                       # Per bank write bursts
system.mem_ctrls.dram.perBankRdBursts::8          238                       # Per bank write bursts
system.mem_ctrls.dram.perBankRdBursts::9          212                       # Per bank write bursts
system.mem_ctrls.dram.perBankRdBursts::10          302                       # Per bank write bursts
system.mem_ctrls.dram.perBankRdBursts::11          209                       # Per bank write bursts
system.mem_ctrls.dram.perBankRdBursts::12          161                       # Per bank write bursts
system.mem_ctrls.dram.perBankRdBursts::13          267                       # Per bank write bursts
system.mem_ctrls.dram.perBankRdBursts::14          293                       # Per bank write bursts
system.mem_ctrls.dram.perBankRdBursts::15          298                       # Per bank write bursts
system.mem_ctrls.dram.perBankWrBursts::0            0                       # Per bank write bursts
system.mem_ctrls.dram.perBankWrBursts::1            0                       # Per bank write bursts
system.mem_ctrls.dram.perBankWrBursts::2            0                       # Per bank write bursts
system.mem_ctrls.dram.perBankWrBursts::3            0                       # Per bank write bursts
system.mem_ctrls.dram.perBankWrBursts::4            0                       # Per bank write bursts
system.mem_ctrls.dram.perBankWrBursts::5            0                       # Per bank write bursts
system.mem_ctrls.dram.perBankWrBursts::6            0                       # Per bank write bursts
system.mem_ctrls.dram.perBankWrBursts::7            0                       # Per bank write bursts
system.mem_ctrls.dram.perBankWrBursts::8            0                       # Per bank write bursts
system.mem_ctrls.dram.perBankWrBursts::9            0                       # Per bank write bursts
system.mem_ctrls.dram.perBankWrBursts::10            0                       # Per bank write bursts
system.mem_ctrls.dram.perBankWrBursts::11            0                       # Per bank write bursts
system.mem_ctrls.dram.perBankWrBursts::12            0                       # Per bank write bursts
system.mem_ctrls.dram.perBankWrBursts::13            0                       # Per bank write bursts
system.mem_ctrls.dram.perBankWrBursts::14            0                       # Per bank write bursts
system.mem_ctrls.dram.perBankWrBursts::15            0                       # Per bank write bursts
system.mem_ctrls.dram.totQLat                37339250                       # Total ticks spent queuing
system.mem_ctrls.dram.totBusLat              23570000                       # Total ticks spent in databus transfers
system.mem_ctrls.dram.totMemAccLat          125726750                       # Total ticks spent from burst creation until serviced by the DRAM
system.mem_ctrls.dram.avgQLat                 7920.93                       # Average queueing delay per DRAM burst
system.mem_ctrls.dram.avgBusLat               5000.00                       # Average bus latency per DRAM burst
system.mem_ctrls.dram.avgMemAccLat           26670.93                       # Average memory access latency per DRAM burst
system.mem_ctrls.dram.readRowHits                3833                       # Number of row buffer hits during reads
system.mem_ctrls.dram.writeRowHits                  0                       # Number of row buffer hits during writes
system.mem_ctrls.dram.readRowHitRate            81.31                       # Row buffer hit rate for reads
system.mem_ctrls.dram.writeRowHitRate             nan                       # Row buffer hit rate for writes
system.mem_ctrls.dram.bytesPerActivate::samples          869                       # Bytes accessed per row activation
system.mem_ctrls.dram.bytesPerActivate::mean   344.819333                       # Bytes accessed per row activation
system.mem_ctrls.dram.bytesPerActivate::gmean   218.537098                       # Bytes accessed per row activation
system.mem_ctrls.dram.bytesPerActivate::stdev   316.815943                       # Bytes accessed per row activation
system.mem_ctrls.dram.bytesPerActivate::0-127          247     28.42%     28.42% # Bytes accessed per row activation
system.mem_ctrls.dram.bytesPerActivate::128-255          191     21.98%     50.40% # Bytes accessed per row activation
system.mem_ctrls.dram.bytesPerActivate::256-383          118     13.58%     63.98% # Bytes accessed per row activation
system.mem_ctrls.dram.bytesPerActivate::384-511           77      8.86%     72.84% # Bytes accessed per row activation
system.mem_ctrls.dram.bytesPerActivate::512-639           62      7.13%     79.98% # Bytes accessed per row activation
system.mem_ctrls.dram.bytesPerActivate::640-767           35      4.03%     84.00% # Bytes accessed per row activation
[...]
system.cpu.dcache.SoftPFReq_hits::.cpu.data         2110                       # number of SoftPFReq hits
system.cpu.dcache.SoftPFReq_hits::total          2110                       # number of SoftPFReq hits
system.cpu.dcache.SoftPFReq_misses::.cpu.data          598                       # number of SoftPFReq misses
system.cpu.dcache.SoftPFReq_misses::total          598                       # number of SoftPFReq misses
system.cpu.dcache.SoftPFReq_accesses::.cpu.data         2708                       # number of SoftPFReq accesses(hits+misses)
system.cpu.dcache.SoftPFReq_accesses::total         2708                       # number of SoftPFReq accesses(hits+misses)
system.cpu.dcache.SoftPFReq_miss_rate::.cpu.data     0.220827                       # miss rate for SoftPFReq accesses
system.cpu.dcache.SoftPFReq_miss_rate::total     0.220827                       # miss rate for SoftPFReq accesses
system.cpu.dcache.SoftPFReq_mshr_misses::.cpu.data          412                       # number of SoftPFReq MSHR misses
system.cpu.dcache.SoftPFReq_mshr_misses::total          412                       # number of SoftPFReq MSHR misses
system.cpu.dcache.SoftPFReq_mshr_miss_latency::.cpu.data      5017000                       # number of SoftPFReq MSHR miss cycles
system.cpu.dcache.SoftPFReq_mshr_miss_latency::total      5017000                       # number of SoftPFReq MSHR miss cycles
system.cpu.dcache.SoftPFReq_mshr_miss_rate::.cpu.data     0.152142                       # mshr miss rate for SoftPFReq accesses
system.cpu.dcache.SoftPFReq_mshr_miss_rate::total     0.152142                       # mshr miss rate for SoftPFReq accesses
system.cpu.dcache.SoftPFReq_avg_mshr_miss_latency::.cpu.data 12177.184466                       # average SoftPFReq mshr miss latency
system.cpu.dcache.SoftPFReq_avg_mshr_miss_latency::total 12177.184466                       # average SoftPFReq mshr miss latency
system.cpu.dcache.power_state.pwrStateResidencyTicks::UNDEFINED   3750896000                       # Cumulative time (in ticks) in various power states
system.cpu.dcache.tags.tagsinuse           504.191262                       # Cycle average of tags in use
system.cpu.dcache.tags.total_refs             3877862                       # Total number of references to valid blocks.
system.cpu.dcache.tags.sampled_refs            128247                       # Sample count of references to valid blocks.
system.cpu.dcache.tags.avg_refs             30.237448                       # Average number of references to valid blocks.
system.cpu.dcache.tags.warmup_cycle            176500                       # Cycle when the warmup percentage was hit.
system.cpu.dcache.tags.occ_blocks::.cpu.data   504.191262                       # Average occupied blocks per requestor
system.cpu.dcache.tags.occ_percent::.cpu.data     0.984749                       # Average percentage of cache occupancy
system.cpu.dcache.tags.occ_percent::total     0.984749                       # Average percentage of cache occupancy
system.cpu.dcache.tags.occ_task_id_blocks::1024          512                       # Occupied blocks per task id
system.cpu.dcache.tags.age_task_id_blocks_1024::0          225                       # Occupied blocks per task id
system.cpu.dcache.tags.age_task_id_blocks_1024::1          252                       # Occupied blocks per task id
system.cpu.dcache.tags.age_task_id_blocks_1024::3           35                       # Occupied blocks per task id
system.cpu.dcache.tags.occ_task_id_percent::1024            1                       # Percentage of cache occupancy per task id
system.cpu.dcache.tags.tag_accesses          19486375                       # Number of tag accesses
system.cpu.dcache.tags.data_accesses         19486375                       # Number of data accesses
system.cpu.dcache.tags.power_state.pwrStateResidencyTicks::UNDEFINED   3750896000                       # Cumulative time (in ticks) in various power states
system.cpu.power_state.pwrStateResidencyTicks::ON   3750896000                       # Cumulative time (in ticks) in various power states
system.cpu.branchPred.lookups                 3092470                       # Number of BP lookups
system.cpu.branchPred.condPredicted           2929162                       # Number of conditional branches predicted
system.cpu.branchPred.condIncorrect            117546                       # Number of conditional branches incorrect
system.cpu.branchPred.BTBLookups              2547766                       # Number of BTB lookups
system.cpu.branchPred.BTBHits                 2543564                       # Number of BTB hits
system.cpu.branchPred.BTBHitPct             99.835071                       # BTB Hit Percentage
system.cpu.branchPred.RASUsed                   37112                       # Number of times the RAS was used to get a target.
system.cpu.branchPred.RASIncorrect                 16                       # Number of incorrect RAS predictions.
system.cpu.branchPred.indirectLookups           11960                       # Number of indirect predictor lookups.
system.cpu.branchPred.indirectHits               8733                       # Number of indirect target hits.
system.cpu.branchPred.indirectMisses             3227                       # Number of indirect misses.
system.cpu.branchPred.indirectMispredicted          463                       # Number of mispredicted indirect branches.
system.cpu.commit.commitSquashedInsts         4197433                       # The number of squashed insts skipped by commit
system.cpu.commit.commitNonSpecStalls             199                       # The number of times commit has been forced to stall to communicate backwards
system.cpu.commit.branchMispredicts            115049                       # The number of times a branch was mispredicted
system.cpu.commit.numCommittedDist::samples      6780478                       # Number of insts commited each cycle
system.cpu.commit.numCommittedDist::mean     3.397270                       # Number of insts commited each cycle
system.cpu.commit.numCommittedDist::stdev     3.547880                       # Number of insts commited each cycle
system.cpu.commit.numCommittedDist::underflows            0      0.00%      0.00% # Number of insts commited each cycle
system.cpu.commit.numCommittedDist::0         2542828     37.50%     37.50% # Number of insts commited each cycle
system.cpu.commit.numCommittedDist::1          823917     12.15%     49.65% # Number of insts commited each cycle
system.cpu.commit.numCommittedDist::2          408333      6.02%     55.68% # Number of insts commited each cycle
system.cpu.commit.numCommittedDist::3          249378      3.68%     59.35% # Number of insts commited each cycle
system.cpu.commit.numCommittedDist::4          256891      3.79%     63.14% # Number of insts commited each cycle
system.cpu.commit.numCommittedDist::5           55903      0.82%     63.97% # Number of insts commited each cycle
system.cpu.commit.numCommittedDist::6           63457      0.94%     64.90% # Number of insts commited each cycle
system.cpu.commit.numCommittedDist::7           79589      1.17%     66.08% # Number of insts commited each cycle
system.cpu.commit.numCommittedDist::8         2300182     33.92%    100.00% # Number of insts commited each cycle
system.cpu.commit.numCommittedDist::overflows            0      0.00%    100.00% # Number of insts commited each cycle
system.cpu.commit.numCommittedDist::min_value            0                       # Number of insts commited each cycle
system.cpu.commit.numCommittedDist::max_value            8                       # Number of insts commited each cycle
system.cpu.commit.numCommittedDist::total      6780478                       # Number of insts commited each cycle
system.cpu.commit.instsCommitted             11753963                       # Number of instructions committed
system.cpu.commit.opsCommitted               23035117                       # Number of ops (including micro ops) committed
system.cpu.commit.memRefs                     4539668                       # Number of memory references committed
system.cpu.commit.loads                       4085081                       # Number of loads committed
system.cpu.commit.amos                              0                       # Number of atomic instructions committed
system.cpu.commit.membars                           0                       # Number of memory barriers committed
system.cpu.commit.branches                    2257296                       # Number of branches committed
system.cpu.commit.vector                            0                       # Number of committed Vector instructions.
system.cpu.commit.floating                    4483498                       # Number of committed floating point instructions.
system.cpu.commit.integer                    20468220                       # Number of committed integer instructions.
system.cpu.commit.functionCalls                 27379                       # Number of function calls committed.
system.cpu.commit.committedInstType_0::No_OpClass       134211      0.58%      0.58% # Class of committed instruction
system.cpu.commit.committedInstType_0::IntAlu     15318884     66.50%     67.08% # Class of committed instruction
system.cpu.commit.committedInstType_0::IntMult        18643      0.08%     67.17% # Class of committed instruction
system.cpu.commit.committedInstType_0::IntDiv       567325      2.46%     69.63% # Class of committed instruction
system.cpu.commit.committedInstType_0::FloatAdd       197707      0.86%     70.49% # Class of committed instruction
system.cpu.commit.committedInstType_0::FloatCmp            0      0.00%     70.49% # Class of committed instruction
system.cpu.commit.committedInstType_0::FloatCvt            0      0.00%     70.49% # Class of committed instruction
system.cpu.commit.committedInstType_0::FloatMult            0      0.00%     70.49% # Class of committed instruction
system.cpu.commit.committedInstType_0::FloatMultAcc            0      0.00%     70.49% # Class of committed instruction
system.cpu.commit.committedInstType_0::FloatDiv            0      0.00%     70.49% # Class of committed instruction
system.cpu.commit.committedInstType_0::FloatMisc            0      0.00%     70.49% # Class of committed instruction
system.cpu.commit.committedInstType_0::FloatSqrt            0      0.00%     70.49% # Class of committed instruction
system.cpu.commit.committedInstType_0::SimdAdd         2442      0.01%     70.50% # Class of committed instruction
system.cpu.commit.committedInstType_0::SimdAddAcc            0      0.00%     70.50% # Class of committed instruction
system.cpu.commit.committedInstType_0::SimdAlu       323704      1.41%     71.90% # Class of committed instruction
system.cpu.commit.committedInstType_0::SimdCmp            0      0.00%     71.90% # Class of committed instruction
system.cpu.commit.committedInstType_0::SimdCvt        11138      0.05%     71.95% # Class of committed instruction
system.cpu.commit.committedInstType_0::SimdMisc        55423      0.24%     72.19% # Class of committed instruction
system.cpu.commit.committedInstType_0::SimdMult            0      0.00%     72.19% # Class of committed instruction
system.cpu.commit.committedInstType_0::SimdMultAcc            0      0.00%     72.19% # Class of committed instruction
system.cpu.commit.committedInstType_0::SimdShift         1222      0.01%     72.20% # Class of committed instruction
system.cpu.commit.committedInstType_0::SimdShiftAcc            0      0.00%     72.20% # Class of committed instruction
system.cpu.commit.committedInstType_0::SimdDiv            0      0.00%     72.20% # Class of committed instruction
system.cpu.commit.committedInstType_0::SimdSqrt            0      0.00%     72.20% # Class of committed instruction
system.cpu.commit.committedInstType_0::SimdFloatAdd      1667728      7.24%     79.44% # Class of committed instruction
system.cpu.commit.committedInstType_0::SimdFloatAlu            0      0.00%     79.44% # Class of committed instruction
system.cpu.commit.committedInstType_0::SimdFloatCmp            0      0.00%     79.44% # Class of committed instruction
system.cpu.commit.committedInstType_0::SimdFloatCvt        98667      0.43%     79.87% # Class of committed instruction
system.cpu.commit.committedInstType_0::SimdFloatDiv        49203      0.21%     80.08% # Class of committed instruction
system.cpu.commit.committedInstType_0::SimdFloatMisc            0      0.00%     80.08% # Class of committed instruction
system.cpu.commit.committedInstType_0::SimdFloatMult        49152      0.21%     80.29% # Class of committed instruction
system.cpu.commit.committedInstType_0::SimdFloatMultAcc            0      0.00%     80.29% # Class of committed instruction
system.cpu.commit.committedInstType_0::SimdFloatSqrt            0      0.00%     80.29% # Class of committed instruction
system.cpu.commit.committedInstType_0::SimdReduceAdd            0      0.00%     80.29% # Class of committed instruction
system.cpu.commit.committedInstType_0::SimdReduceAlu            0      0.00%     80.29% # Class of committed instruction
system.cpu.commit.committedInstType_0::SimdReduceCmp            0      0.00%     80.29% # Class of committed instruction
system.cpu.commit.committedInstType_0::SimdFloatReduceAdd            0      0.00%     80.29% # Class of committed instruction
system.cpu.commit.committedInstType_0::SimdFloatReduceCmp            0      0.00%     80.29% # Class of committed instruction
system.cpu.commit.committedInstType_0::SimdAes            0      0.00%     80.29% # Class of committed instruction
system.cpu.commit.committedInstType_0::SimdAesMix            0      0.00%     80.29% # Class of committed instruction
system.cpu.commit.committedInstType_0::SimdSha1Hash            0      0.00%     80.29% # Class of committed instruction
system.cpu.commit.committedInstType_0::SimdSha1Hash2            0      0.00%     80.29% # Class of committed instruction
system.cpu.commit.committedInstType_0::SimdSha256Hash            0      0.00%     80.29% # Class of committed instruction
system.cpu.commit.committedInstType_0::SimdSha256Hash2            0      0.00%     80.29% # Class of committed instruction
system.cpu.commit.committedInstType_0::SimdShaSigma2            0      0.00%     80.29% # Class of committed instruction
system.cpu.commit.committedInstType_0::SimdShaSigma3            0      0.00%     80.29% # Class of committed instruction
system.cpu.commit.committedInstType_0::SimdPredAlu            0      0.00%     80.29% # Class of committed instruction
system.cpu.commit.committedInstType_0::MemRead      2245179      9.75%     90.04% # Class of committed instruction
system.cpu.commit.committedInstType_0::MemWrite       286836      1.25%     91.28% # Class of committed instruction
system.cpu.commit.committedInstType_0::FloatMemRead      1839902      7.99%     99.27% # Class of committed instruction
system.cpu.commit.committedInstType_0::FloatMemWrite       167751      0.73%    100.00% # Class of committed instruction
system.cpu.commit.committedInstType_0::IprAccess            0      0.00%    100.00% # Class of committed instruction
system.cpu.commit.committedInstType_0::InstPrefetch            0      0.00%    100.00% # Class of committed instruction
system.cpu.commit.committedInstType_0::total     23035117                       # Class of committed instruction
system.cpu.commit.commitEligibleSamples       2300182                       # number cycles where commit BW limit reached
system.cpu.thread0.numInsts                  11753963                       # Number of Instructions committed
system.cpu.thread0.numOps                    23035117                       # Number of Ops committed
system.cpu.thread0.numMemRefs                       0                       # Number of Memory References
system.cpu.fetch.icacheStallCycles             856096                       # Number of cycles fetch is stalled on an Icache miss
system.cpu.fetch.insts                       15966763                       # Number of instructions fetch has processed
system.cpu.fetch.branches                     3092470                       # Number of branches that fetch encountered
system.cpu.fetch.predictedBranches            2589409                       # Number of branches that fetch has predicted taken
system.cpu.fetch.cycles                       6392447                       # Number of cycles fetch has run and was not squashing or blocked
system.cpu.fetch.squashCycles                  239188                       # Number of cycles fetch has spent squashing
system.cpu.fetch.miscStallCycles                  370                       # Number of cycles fetch has spent waiting on interrupts,or bad addresses, or out of MSHRs
system.cpu.fetch.pendingTrapStallCycles          2464                       # Number of stall cycles due to pending traps
system.cpu.fetch.pendingQuiesceStallCycles            1                       # Number of stall cycles due to pending quiesce instructions
system.cpu.fetch.icacheWaitRetryStallCycles           53                       # Number of stall cycles due to full MSHR
system.cpu.fetch.cacheLines                    754104                       # Number of cache lines fetched
system.cpu.fetch.icacheSquashes                 21220                       # Number of outstanding Icache misses that were squashed
system.cpu.fetch.nisnDist::samples            7371025                       # Number of instructions fetched each cycle (Total)
system.cpu.fetch.nisnDist::mean              4.129895                       # Number of instructions fetched each cycle (Total)
system.cpu.fetch.nisnDist::stdev             3.401175                       # Number of instructions fetched each cycle (Total)
system.cpu.fetch.nisnDist::underflows               0      0.00%      0.00% # Number of instructions fetched each cycle (Total)
system.cpu.fetch.nisnDist::0                  1846708     25.05%     25.05% # Number of instructions fetched each cycle (Total)
system.cpu.fetch.nisnDist::1                    67876      0.92%     25.97% # Number of instructions fetched each cycle (Total)
system.cpu.fetch.nisnDist::2                  1842625     25.00%     50.97% # Number of instructions fetched each cycle (Total)
system.cpu.fetch.nisnDist::3                   128836      1.75%     52.72% # Number of instructions fetched each cycle (Total)
system.cpu.fetch.nisnDist::4                   163893      2.22%     54.94% # Number of instructions fetched each cycle (Total)
system.cpu.fetch.nisnDist::5                   114670      1.56%     56.50% # Number of instructions fetched each cycle (Total)
system.cpu.fetch.nisnDist::6                   182885      2.48%     58.98% # Number of instructions fetched each cycle (Total)
system.cpu.fetch.nisnDist::7                   212565      2.88%     61.86% # Number of instructions fetched each cycle (Total)
system.cpu.fetch.nisnDist::8                  2810967     38.14%    100.00% # Number of instructions fetched each cycle (Total)
system.cpu.fetch.nisnDist::overflows                0      0.00%    100.00% # Number of instructions fetched each cycle (Total)
system.cpu.fetch.nisnDist::min_value                0                       # Number of instructions fetched each cycle (Total)
system.cpu.fetch.nisnDist::max_value                8                       # Number of instructions fetched each cycle (Total)
system.cpu.fetch.nisnDist::total              7371025                       # Number of instructions fetched each cycle (Total)
system.cpu.fetch.branchRate                  0.412231                       # Number of branch fetches per cycle
system.cpu.fetch.rate                        2.128393                       # Number of inst fetches per cycle

---------- End Simulation Statistics   ----------
