
---------- Begin Simulation Statistics ----------
final_tick                                 1988693500                       # Number of ticks from beginning of simulation (restored from checkpoints and never reset)
host_inst_rate                                 128513                       # Simulator instruction rate (inst/s)
host_mem_usage                                 727908                       # Number of bytes of host memory used
host_op_rate                                   236394                       # Simulator op (including micro ops) rate (op/s)
host_seconds                                    29.78                       # Real time elapsed on the host
host_tick_rate                               66779187                       # Simulator tick rate (ticks/s)
sim_freq                                 1000000000000                       # Frequency of simulated ticks
sim_insts                                     3827110                       # Number of instructions simulated
sim_ops                                       7039837                       # Number of ops (including micro ops) simulated
sim_seconds                                  0.001989                       # Number of seconds simulated
sim_ticks                                  1988693500                       # Number of ticks simulated
system.cpu.cc_regfile_reads                   5089234                       # number of cc regfile reads
system.cpu.cc_regfile_writes                  3575222                       # number of cc regfile writes
system.cpu.committedInsts                     3827110                       # Number of Instructions Simulated
system.cpu.committedOps                       7039837                       # Number of Ops (including micro ops) Simulated
system.cpu.cpi                               1.039267                       # CPI: Cycles Per Instruction
system.cpu.cpi_total                         1.039267                       # CPI: Total CPI of All Threads
system.cpu.fp_regfile_reads                    216569                       # number of floating regfile reads
system.cpu.fp_regfile_writes                   142761                       # number of floating regfile writes
system.cpu.idleCycles                          127294                       # Total number of cycles that the CPU has spent unscheduled due to idling
system.cpu.iew.branchMispredicts                83839                       # Number of branch mispredicts detected at execute
system.cpu.iew.exec_branches                   979826                       # Number of branches executed
system.cpu.iew.exec_nop                             0                       # number of nop insts executed
system.cpu.iew.exec_rate                     2.307093                       # Inst execution rate
system.cpu.iew.exec_refs                      1564129                       # number of memory reference insts executed
system.cpu.iew.exec_stores                     486063                       # Number of stores executed
system.cpu.iew.exec_swp                             0                       # number of swp insts executed
system.cpu.iew.iewBlockCycles                  379297                       # Number of cycles IEW is blocking
system.cpu.iew.iewDispLoadInsts               1217125                       # Number of dispatched load instructions
system.cpu.iew.iewDispNonSpecInsts                234                       # Number of dispatched non-speculative instructions
system.cpu.iew.iewDispSquashedInsts              8614                       # Number of squashed instructions skipped by dispatch
system.cpu.iew.iewDispStoreInsts               620747                       # Number of dispatched store instructions
system.cpu.iew.iewDispatchedInsts            10337400                       # Number of instructions dispatched to IQ
system.cpu.iew.iewExecLoadInsts               1078066                       # Number of load instructions executed
system.cpu.iew.iewExecSquashedInsts            172490                       # Number of squashed instructions skipped in execute
system.cpu.iew.iewExecutedInsts               9176204                       # Number of executed instructions
system.cpu.iew.iewIQFullEvents                   4375                       # Number of times the IQ has become full, causing a stall
system.cpu.iew.iewIdleCycles                        0                       # Number of cycles IEW is idle
system.cpu.iew.iewLSQFullEvents                 94078                       # Number of times the LSQ has become full, causing a stall
system.cpu.iew.iewSquashCycles                  80117                       # Number of cycles IEW is squashing
system.cpu.iew.iewUnblockCycles                 99549                       # Number of cycles IEW is unblocking
system.cpu.iew.memOrderViolationEvents            329                       # Number of memory order violations
system.cpu.iew.predictedNotTakenIncorrect        46613                       # Number of branches that were predicted not taken incorrectly
system.cpu.iew.predictedTakenIncorrect          37226                       # Number of branches that were predicted taken incorrectly
system.cpu.iew.wb_consumers                  12933163                       # num instructions consuming a value
system.cpu.iew.wb_count                       9066070                       # cumulative count of insts written-back
system.cpu.iew.wb_fanout                     0.532125                       # average fanout of values written-back
system.cpu.iew.wb_producers                   6882061                       # num instructions producing a value
system.cpu.iew.wb_rate                       2.279403                       # insts written-back per cycle
system.cpu.iew.wb_sent                        9124668                       # cumulative count of insts sent to commit
system.cpu.int_regfile_reads                 15169626                       # number of integer regfile reads
system.cpu.int_regfile_writes                 8739413                       # number of integer regfile writes
system.cpu.ipc                               0.962217                       # IPC: Instructions Per Cycle
system.cpu.ipc_total                         0.962217                       # IPC: Total IPC of All Threads
system.cpu.iq.FU_type_0::No_OpClass            181790      1.94%      1.94% # Type of FU issued
system.cpu.iq.FU_type_0::IntAlu               6850593     73.28%     75.22% # Type of FU issued
system.cpu.iq.FU_type_0::IntMult                20544      0.22%     75.44% # Type of FU issued
system.cpu.iq.FU_type_0::IntDiv                632009      6.76%     82.20% # Type of FU issued
system.cpu.iq.FU_type_0::FloatAdd                1297      0.01%     82.22% # Type of FU issued
system.cpu.iq.FU_type_0::FloatCmp                   0      0.00%     82.22% # Type of FU issued
system.cpu.iq.FU_type_0::FloatCvt                   0      0.00%     82.22% # Type of FU issued
system.cpu.iq.FU_type_0::FloatMult                  0      0.00%     82.22% # Type of FU issued
system.cpu.iq.FU_type_0::FloatMultAcc               0      0.00%     82.22% # Type of FU issued
system.cpu.iq.FU_type_0::FloatDiv                   0      0.00%     82.22% # Type of FU issued
system.cpu.iq.FU_type_0::FloatMisc                  0      0.00%     82.22% # Type of FU issued
system.cpu.iq.FU_type_0::FloatSqrt                  0      0.00%     82.22% # Type of FU issued
system.cpu.iq.FU_type_0::SimdAdd                 2446      0.03%     82.24% # Type of FU issued
system.cpu.iq.FU_type_0::SimdAddAcc                 0      0.00%     82.24% # Type of FU issued
system.cpu.iq.FU_type_0::SimdAlu                31190      0.33%     82.58% # Type of FU issued
system.cpu.iq.FU_type_0::SimdCmp                    0      0.00%     82.58% # Type of FU issued
system.cpu.iq.FU_type_0::SimdCvt                12004      0.13%     82.71% # Type of FU issued
system.cpu.iq.FU_type_0::SimdMisc                8673      0.09%     82.80% # Type of FU issued
system.cpu.iq.FU_type_0::SimdMult                   0      0.00%     82.80% # Type of FU issued
system.cpu.iq.FU_type_0::SimdMultAcc                0      0.00%     82.80% # Type of FU issued
system.cpu.iq.FU_type_0::SimdShift               1232      0.01%     82.81% # Type of FU issued
system.cpu.iq.FU_type_0::SimdShiftAcc               0      0.00%     82.81% # Type of FU issued
system.cpu.iq.FU_type_0::SimdDiv                    0      0.00%     82.81% # Type of FU issued
system.cpu.iq.FU_type_0::SimdSqrt                   0      0.00%     82.81% # Type of FU issued
system.cpu.iq.FU_type_0::SimdFloatAdd              16      0.00%     82.81% # Type of FU issued
system.cpu.iq.FU_type_0::SimdFloatAlu               0      0.00%     82.81% # Type of FU issued
system.cpu.iq.FU_type_0::SimdFloatCmp               0      0.00%     82.81% # Type of FU issued
system.cpu.iq.FU_type_0::SimdFloatCvt             549      0.01%     82.82% # Type of FU issued
system.cpu.iq.FU_type_0::SimdFloatDiv             270      0.00%     82.82% # Type of FU issued
system.cpu.iq.FU_type_0::SimdFloatMisc              0      0.00%     82.82% # Type of FU issued
system.cpu.iq.FU_type_0::SimdFloatMult              0      0.00%     82.82% # Type of FU issued
system.cpu.iq.FU_type_0::SimdFloatMultAcc            0      0.00%     82.82% # Type of FU issued
system.cpu.iq.FU_type_0::SimdFloatSqrt              0      0.00%     82.82% # Type of FU issued
system.cpu.iq.FU_type_0::SimdReduceAdd              0      0.00%     82.82% # Type of FU issued
system.cpu.iq.FU_type_0::SimdReduceAlu              0      0.00%     82.82% # Type of FU issued
system.cpu.iq.FU_type_0::SimdReduceCmp              0      0.00%     82.82% # Type of FU issued
system.cpu.iq.FU_type_0::SimdFloatReduceAdd            0      0.00%     82.82% # Type of FU issued
system.cpu.iq.FU_type_0::SimdFloatReduceCmp            0      0.00%     82.82% # Type of FU issued
system.cpu.iq.FU_type_0::SimdAes                    0      0.00%     82.82% # Type of FU issued
system.cpu.iq.FU_type_0::SimdAesMix                 0      0.00%     82.82% # Type of FU issued
system.cpu.iq.FU_type_0::SimdSha1Hash               0      0.00%     82.82% # Type of FU issued
system.cpu.iq.FU_type_0::SimdSha1Hash2              0      0.00%     82.82% # Type of FU issued
system.cpu.iq.FU_type_0::SimdSha256Hash             0      0.00%     82.82% # Type of FU issued
system.cpu.iq.FU_type_0::SimdSha256Hash2            0      0.00%     82.82% # Type of FU issued
system.cpu.iq.FU_type_0::SimdShaSigma2              0      0.00%     82.82% # Type of FU issued
system.cpu.iq.FU_type_0::SimdShaSigma3              0      0.00%     82.82% # Type of FU issued
system.cpu.iq.FU_type_0::SimdPredAlu                0      0.00%     82.82% # Type of FU issued
system.cpu.iq.FU_type_0::MemRead              1027379     10.99%     93.81% # Type of FU issued
system.cpu.iq.FU_type_0::MemWrite              448600      4.80%     98.61% # Type of FU issued
system.cpu.iq.FU_type_0::FloatMemRead           76813      0.82%     99.43% # Type of FU issued
system.cpu.iq.FU_type_0::FloatMemWrite          53289      0.57%    100.00% # Type of FU issued
system.cpu.iq.FU_type_0::IprAccess                  0      0.00%    100.00% # Type of FU issued
system.cpu.iq.FU_type_0::InstPrefetch               0      0.00%    100.00% # Type of FU issued
system.cpu.iq.FU_type_0::total                9348694                       # Type of FU issued
system.cpu.iq.fp_alu_accesses                  227003                       # Number of floating point alu accesses
system.cpu.iq.fp_inst_queue_reads              436117                       # Number of floating instruction queue reads
system.cpu.iq.fp_inst_queue_wakeup_accesses       195423                       # Number of floating instruction queue wakeup accesses
system.cpu.iq.fp_inst_queue_writes             354612                       # Number of floating instruction queue writes
system.cpu.iq.fu_busy_cnt                      140095                       # FU busy when requested
system.cpu.iq.fu_busy_rate                   0.014986                       # FU busy rate (busy events/executed inst)
system.cpu.iq.fu_full::No_OpClass                   0      0.00%      0.00% # attempts to use FU when none available
system.cpu.iq.fu_full::IntAlu                  112017     79.96%     79.96% # attempts to use FU when none available
system.cpu.iq.fu_full::IntMult                      0      0.00%     79.96% # attempts to use FU when none available
system.cpu.iq.fu_full::IntDiv                       0      0.00%     79.96% # attempts to use FU when none available
system.cpu.iq.fu_full::FloatAdd                     0      0.00%     79.96% # attempts to use FU when none available
system.cpu.iq.fu_full::FloatCmp                     0      0.00%     79.96% # attempts to use FU when none available
system.cpu.iq.fu_full::FloatCvt                     0      0.00%     79.96% # attempts to use FU when none available
system.cpu.iq.fu_full::FloatMult                    0      0.00%     79.96% # attempts to use FU when none available
system.cpu.iq.fu_full::FloatMultAcc                 0      0.00%     79.96% # attempts to use FU when none available
system.cpu.iq.fu_full::FloatDiv                     0      0.00%     79.96% # attempts to use FU when none available
system.cpu.iq.fu_full::FloatMisc                    0      0.00%     79.96% # attempts to use FU when none available
system.cpu.iq.fu_full::FloatSqrt                    0      0.00%     79.96% # attempts to use FU when none available
system.cpu.iq.fu_full::SimdAdd                      0      0.00%     79.96% # attempts to use FU when none available
system.cpu.iq.fu_full::SimdAddAcc                   0      0.00%     79.96% # attempts to use FU when none available
system.cpu.iq.fu_full::SimdAlu                    427      0.30%     80.26% # attempts to use FU when none available
system.cpu.iq.fu_full::SimdCmp                      0      0.00%     80.26% # attempts to use FU when none available
system.cpu.iq.fu_full::SimdCvt                     40      0.03%     80.29% # attempts to use FU when none available
system.cpu.iq.fu_full::SimdMisc                    66      0.05%     80.34% # attempts to use FU when none available
system.cpu.iq.fu_full::SimdMult                     0      0.00%     80.34% # attempts to use FU when none available
system.cpu.iq.fu_full::SimdMultAcc                  0      0.00%     80.34% # attempts to use FU when none available
system.cpu.iq.fu_full::SimdShift                    0      0.00%     80.34% # attempts to use FU when none available
system.cpu.iq.fu_full::SimdShiftAcc                 0      0.00%     80.34% # attempts to use FU when none available
system.cpu.iq.fu_full::SimdDiv                      0      0.00%     80.34% # attempts to use FU when none available
system.cpu.iq.fu_full::SimdSqrt                     0      0.00%     80.34% # attempts to use FU when none available
system.cpu.iq.fu_full::SimdFloatAdd                 0      0.00%     80.34% # attempts to use FU when none available
system.cpu.iq.fu_full::SimdFloatAlu                 0      0.00%     80.34% # attempts to use FU when none available
system.cpu.iq.fu_full::SimdFloatCmp                 0      0.00%     80.34% # attempts to use FU when none available
system.cpu.iq.fu_full::SimdFloatCvt                 0      0.00%     80.34% # attempts to use FU when none available
system.cpu.iq.fu_full::SimdFloatDiv                 0      0.00%     80.34% # attempts to use FU when none available
system.cpu.iq.fu_full::SimdFloatMisc                0      0.00%     80.34% # attempts to use FU when none available
system.cpu.iq.fu_full::SimdFloatMult                0      0.00%     80.34% # attempts to use FU when none available
system.cpu.iq.fu_full::SimdFloatMultAcc             0      0.00%     80.34% # attempts to use FU when none available
system.cpu.iq.fu_full::SimdFloatSqrt                0      0.00%     80.34% # attempts to use FU when none available
system.cpu.iq.fu_full::SimdReduceAdd                0      0.00%     80.34% # attempts to use FU when none available
system.cpu.iq.fu_full::SimdReduceAlu                0      0.00%     80.34% # attempts to use FU when none available
system.cpu.iq.fu_full::SimdReduceCmp                0      0.00%     80.34% # attempts to use FU when none available
system.cpu.iq.fu_full::SimdFloatReduceAdd            0      0.00%     80.34% # attempts to use FU when none available
system.cpu.iq.fu_full::SimdFloatReduceCmp            0      0.00%     80.34% # attempts to use FU when none available
system.cpu.iq.fu_full::SimdAes                      0      0.00%     80.34% # attempts to use FU when none available
system.cpu.iq.fu_full::SimdAesMix                   0      0.00%     80.34% # attempts to use FU when none available
system.cpu.iq.fu_full::SimdSha1Hash                 0      0.00%     80.34% # attempts to use FU when none available
system.cpu.iq.fu_full::SimdSha1Hash2                0      0.00%     80.34% # attempts to use FU when none available
system.cpu.iq.fu_full::SimdSha256Hash               0      0.00%     80.34% # attempts to use FU when none available
system.cpu.iq.fu_full::SimdSha256Hash2              0      0.00%     80.34% # attempts to use FU when none available
system.cpu.iq.fu_full::SimdShaSigma2                0      0.00%     80.34% # attempts to use FU when none available
system.cpu.iq.fu_full::SimdShaSigma3                0      0.00%     80.34% # attempts to use FU when none available
system.cpu.iq.fu_full::SimdPredAlu                  0      0.00%     80.34% # attempts to use FU when none available
system.cpu.iq.fu_full::MemRead                   3806      2.72%     83.06% # attempts to use FU when none available
system.cpu.iq.fu_full::MemWrite                  5026      3.59%     86.64% # attempts to use FU when none available
system.cpu.iq.fu_full::FloatMemRead             12718      9.08%     95.72% # attempts to use FU when none available
system.cpu.iq.fu_full::FloatMemWrite             5995      4.28%    100.00% # attempts to use FU when none available
system.cpu.iq.fu_full::IprAccess                    0      0.00%    100.00% # attempts to use FU when none available
system.cpu.iq.fu_full::InstPrefetch                 0      0.00%    100.00% # attempts to use FU when none available
system.cpu.iq.int_alu_accesses                9079996                       # Number of integer alu accesses
system.cpu.iq.int_inst_queue_reads           22269525                       # Number of integer instruction queue reads
system.cpu.iq.int_inst_queue_wakeup_accesses      8870647                       # Number of integer instruction queue wakeup accesses
system.cpu.iq.int_inst_queue_writes          13280640                       # Number of integer instruction queue writes
system.cpu.iq.iqInstsAdded                   10334720                       # Number of instructions added to the IQ (excludes non-spec)
system.cpu.iq.iqInstsIssued                   9348694                       # Number of instructions issued
system.cpu.iq.iqNonSpecInstsAdded                2680                       # Number of non-speculative instructions added to the IQ
system.cpu.iq.iqSquashedInstsExamined         3297557                       # Number of squashed instructions iterated over during squash; mainly for profiling
system.cpu.iq.iqSquashedInstsIssued             18065                       # Number of squashed instructions issued
system.cpu.iq.iqSquashedNonSpecRemoved           2465                       # Number of squashed non-spec instructions that were removed
system.cpu.iq.iqSquashedOperandsExamined      4195874                       # Number of squashed operands that are examined and possibly removed from graph
system.cpu.iq.issued_per_cycle::samples       3850094                       # Number of insts issued each cycle
system.cpu.iq.issued_per_cycle::mean         2.428173                       # Number of insts issued each cycle
system.cpu.iq.issued_per_cycle::stdev        2.376870                       # Number of insts issued each cycle
system.cpu.iq.issued_per_cycle::underflows            0      0.00%      0.00% # Number of insts issued each cycle
system.cpu.iq.issued_per_cycle::0             1363626     35.42%     35.42% # Number of insts issued each cycle
system.cpu.iq.issued_per_cycle::1              318092      8.26%     43.68% # Number of insts issued each cycle
system.cpu.iq.issued_per_cycle::2              463596     12.04%     55.72% # Number of insts issued each cycle
system.cpu.iq.issued_per_cycle::3              447407     11.62%     67.34% # Number of insts issued each cycle
system.cpu.iq.issued_per_cycle::4              400538     10.40%     77.75% # Number of insts issued each cycle
system.cpu.iq.issued_per_cycle::5              309067      8.03%     85.77% # Number of insts issued each cycle
system.cpu.iq.issued_per_cycle::6              293224      7.62%     93.39% # Number of insts issued each cycle
system.cpu.iq.issued_per_cycle::7              181994      4.73%     98.12% # Number of insts issued each cycle
system.cpu.iq.issued_per_cycle::8               72550      1.88%    100.00% # Number of insts issued each cycle
system.cpu.iq.issued_per_cycle::overflows            0      0.00%    100.00% # Number of insts issued each cycle
system.cpu.iq.issued_per_cycle::min_value            0                       # Number of insts issued each cycle
system.cpu.iq.issued_per_cycle::max_value            8                       # Number of insts issued each cycle
system.cpu.iq.issued_per_cycle::total         3850094                       # Number of insts issued each cycle
system.cpu.iq.rate                           2.350461                       # Inst issue rate
system.cpu.iq.vec_alu_accesses                      0                       # Number of vector alu accesses
system.cpu.iq.vec_inst_queue_reads                  0                       # Number of vector instruction queue reads
system.cpu.iq.vec_inst_queue_wakeup_accesses            0                       # Number of vector instruction queue wakeup accesses
system.cpu.iq.vec_inst_queue_writes                 0                       # Number of vector instruction queue writes
system.cpu.memDep0.conflictingLoads            219624                       # Number of conflicting loads.
system.cpu.memDep0.conflictingStores           149047                       # Number of conflicting stores.
system.cpu.memDep0.insertedLoads              1217125                       # Number of loads inserted to the mem dependence unit.
system.cpu.memDep0.insertedStores              620747                       # Number of stores inserted to the mem dependence unit.
system.cpu.misc_regfile_reads                 3401298                       # number of misc regfile reads
system.cpu.numCycles                          3977388                       # number of cpu cycles simulated
system.cpu.numWorkItemsCompleted                    0                       # number of work items this cpu completed
system.cpu.numWorkItemsStarted                      0                       # number of work items this cpu started
system.cpu.timesIdled                            1684                       # Number of times that the entire CPU went into an idle state and unscheduled itself
system.cpu.workload.numSyscalls                   419                       # Number of system calls
system.membus.snoop_filter.hit_multi_requests            0                       # Number of requests hitting in the snoop filter with multiple (>1) holders of the requested data.
system.membus.snoop_filter.hit_multi_snoops            0                       # Number of snoops hitting in the snoop filter with multiple (>1) holders of the requested data.
system.membus.snoop_filter.hit_single_requests           39                       # Number of requests hitting in the snoop filter with a single holder of the requested data.
system.membus.snoop_filter.hit_single_snoops            0                       # Number of snoops hitting in the snoop filter with a single holder of the requested data.
system.membus.snoop_filter.tot_requests          4866                       # Total number of requests made to the snoop filter.
system.membus.snoop_filter.tot_snoops               0                       # Total number of snoops made to the snoop filter.
system.tol2bus.snoop_filter.hit_multi_requests            5                       # Number of requests hitting in the snoop filter with multiple (>1) holders of the requested data.
system.tol2bus.snoop_filter.hit_multi_snoops            0                       # Number of snoops hitting in the snoop filter with multiple (>1) holders of the requested data.
system.tol2bus.snoop_filter.hit_single_requests        25848                       # Number of requests hitting in the snoop filter with a single holder of the requested data.
system.tol2bus.snoop_filter.hit_single_snoops           11                       # Number of snoops hitting in the snoop filter with a single holder of the requested data.
system.tol2bus.snoop_filter.tot_requests        52721                       # Total number of requests made to the snoop filter.
system.tol2bus.snoop_filter.tot_snoops             11                       # Total number of snoops made to the snoop filter.
system.membus.trans_dist::ReadResp               2016                       # Transaction distribution
system.membus.trans_dist::WritebackDirty           11                       # Transaction distribution
system.membus.trans_dist::CleanEvict               28                       # Transaction distribution
system.membus.trans_dist::ReadExReq              2811                       # Transaction distribution
system.membus.trans_dist::ReadExResp             2811                       # Transaction distribution
system.membus.trans_dist::ReadSharedReq          2016                       # Transaction distribution
system.membus.pkt_count_system.l2.mem_side_port::system.mem_ctrls.port         9693                       # Packet count per connected requestor and responder (bytes)
system.membus.pkt_count_system.l2.mem_side_port::total         9693                       # Packet count per connected requestor and responder (bytes)
system.membus.pkt_count::total                   9693                       # Packet count per connected requestor and responder (bytes)
system.membus.pkt_size_system.l2.mem_side_port::system.mem_ctrls.port       309632                       # Cumulative packet size per connected requestor and responder (bytes)
system.membus.pkt_size_system.l2.mem_side_port::total       309632                       # Cumulative packet size per connected requestor and responder (bytes)
system.membus.pkt_size::total                  309632                       # Cumulative packet size per connected requestor and responder (bytes)
system.membus.snoops                                0                       # Total snoops (count)
system.membus.snoopTraffic                          0                       # Total snoop traffic (bytes)
system.membus.snoop_fanout::samples              4827                       # Request fanout histogram
system.membus.snoop_fanout::mean                    0                       # Request fanout histogram
system.membus.snoop_fanout::stdev                   0                       # Request fanout histogram
system.membus.snoop_fanout::underflows              0      0.00%      0.00% # Request fanout histogram
system.membus.snoop_fanout::0                    4827    100.00%    100.00% # Request fanout histogram
system.membus.snoop_fanout::1                       0      0.00%    100.00% # Request fanout histogram
system.membus.snoop_fanout::overflows               0      0.00%    100.00% # Request fanout histogram
system.membus.snoop_fanout::min_value               0                       # Request fanout histogram
system.membus.snoop_fanout::max_value               0                       # Request fanout histogram
system.membus.snoop_fanout::total                4827                       # Request fanout histogram
system.membus.reqLayer2.occupancy             5929000                       # Layer occupancy (ticks)
system.membus.reqLayer2.utilization               0.3                       # Layer utilization (%)
system.membus.respLayer1.occupancy           25560750                       # Layer occupancy (ticks)
system.membus.respLayer1.utilization              1.3                       # Layer utilization (%)
system.membus.power_state.pwrStateResidencyTicks::UNDEFINED   1988693500                       # Cumulative time (in ticks) in various power states
system.tol2bus.trans_dist::ReadResp             17945                       # Transaction distribution
system.tol2bus.trans_dist::WritebackDirty        21520                       # Transaction distribution
system.tol2bus.trans_dist::WritebackClean         3808                       # Transaction distribution
system.tol2bus.trans_dist::CleanEvict             569                       # Transaction distribution
system.tol2bus.trans_dist::ReadExReq             8927                       # Transaction distribution
system.tol2bus.trans_dist::ReadExResp            8927                       # Transaction distribution
system.tol2bus.trans_dist::ReadCleanReq          4321                       # Transaction distribution
system.tol2bus.trans_dist::ReadSharedReq        13625                       # Transaction distribution
system.tol2bus.pkt_count_system.cpu.icache.mem_side_port::system.l2.cpu_side_port        12449                       # Packet count per connected requestor and responder (bytes)
system.tol2bus.pkt_count_system.cpu.dcache.mem_side_port::system.l2.cpu_side_port        67144                       # Packet count per connected requestor and responder (bytes)
system.tol2bus.pkt_count::total                 79593                       # Packet count per connected requestor and responder (bytes)
system.tol2bus.pkt_size_system.cpu.icache.mem_side_port::system.l2.cpu_side_port       520192                       # Cumulative packet size per connected requestor and responder (bytes)
system.tol2bus.pkt_size_system.cpu.dcache.mem_side_port::system.l2.cpu_side_port      2819904                       # Cumulative packet size per connected requestor and responder (bytes)
system.tol2bus.pkt_size::total                3340096                       # Cumulative packet size per connected requestor and responder (bytes)
system.tol2bus.snoops                              49                       # Total snoops (count)
system.tol2bus.snoopTraffic                       704                       # Total snoop traffic (bytes)
system.tol2bus.snoop_fanout::samples            26922                       # Request fanout histogram
system.tol2bus.snoop_fanout::mean            0.000594                       # Request fanout histogram
system.tol2bus.snoop_fanout::stdev           0.024372                       # Request fanout histogram
system.tol2bus.snoop_fanout::underflows             0      0.00%      0.00% # Request fanout histogram
system.tol2bus.snoop_fanout::0                  26906     99.94%     99.94% # Request fanout histogram
system.tol2bus.snoop_fanout::1                     16      0.06%    100.00% # Request fanout histogram
system.tol2bus.snoop_fanout::2                      0      0.00%    100.00% # Request fanout histogram
system.tol2bus.snoop_fanout::3                      0      0.00%    100.00% # Request fanout histogram
system.tol2bus.snoop_fanout::4                      0      0.00%    100.00% # Request fanout histogram
system.tol2bus.snoop_fanout::overflows              0      0.00%    100.00% # Request fanout histogram
system.tol2bus.snoop_fanout::min_value              0                       # Request fanout histogram
system.tol2bus.snoop_fanout::max_value              1                       # Request fanout histogram
system.tol2bus.snoop_fanout::total              26922                       # Request fanout histogram
system.tol2bus.reqLayer0.occupancy           51677500                       # Layer occupancy (ticks)
system.tol2bus.reqLayer0.utilization              2.6                       # Layer utilization (%)
system.tol2bus.respLayer1.occupancy          33828998                       # Layer occupancy (ticks)
system.tol2bus.respLayer1.utilization             1.7                       # Layer utilization (%)
system.tol2bus.respLayer0.occupancy           6481497                       # Layer occupancy (ticks)
system.tol2bus.respLayer0.utilization             0.3                       # Layer utilization (%)
system.tol2bus.power_state.pwrStateResidencyTicks::UNDEFINED   1988693500                       # Cumulative time (in ticks) in various power states
system.voltage_domain.voltage                       1                       # Voltage in Volts
system.clk_domain.clock                          1000                       # Clock period in ticks
system.l2.demand_hits::.cpu.inst                 2564                       # number of demand (read+write) hits
system.l2.demand_hits::.cpu.data                19480                       # number of demand (read+write) hits
system.l2.demand_hits::total                    22044                       # number of demand (read+write) hits
system.l2.overall_hits::.cpu.inst                2564                       # number of overall hits
system.l2.overall_hits::.cpu.data               19480                       # number of overall hits
system.l2.overall_hits::total                   22044                       # number of overall hits
system.l2.demand_misses::.cpu.inst               1757                       # number of demand (read+write) misses
system.l2.demand_misses::.cpu.data               3072                       # number of demand (read+write) misses
system.l2.demand_misses::total                   4829                       # number of demand (read+write) misses
system.l2.overall_misses::.cpu.inst              1757                       # number of overall misses
system.l2.overall_misses::.cpu.data              3072                       # number of overall misses
system.l2.overall_misses::total                  4829                       # number of overall misses
system.l2.demand_miss_latency::.cpu.inst    138676000                       # number of demand (read+write) miss cycles
system.l2.demand_miss_latency::.cpu.data    233505500                       # number of demand (read+write) miss cycles
system.l2.demand_miss_latency::total        372181500                       # number of demand (read+write) miss cycles
system.l2.overall_miss_latency::.cpu.inst    138676000                       # number of overall miss cycles
system.l2.overall_miss_latency::.cpu.data    233505500                       # number of overall miss cycles
system.l2.overall_miss_latency::total       372181500                       # number of overall miss cycles
system.l2.demand_accesses::.cpu.inst             4321                       # number of demand (read+write) accesses
system.l2.demand_accesses::.cpu.data            22552                       # number of demand (read+write) accesses
system.l2.demand_accesses::total                26873                       # number of demand (read+write) accesses
system.l2.overall_accesses::.cpu.inst            4321                       # number of overall (read+write) accesses
system.l2.overall_accesses::.cpu.data           22552                       # number of overall (read+write) accesses
system.l2.overall_accesses::total               26873                       # number of overall (read+write) accesses
system.l2.demand_miss_rate::.cpu.inst        0.406619                       # miss rate for demand accesses
system.l2.demand_miss_rate::.cpu.data        0.136219                       # miss rate for demand accesses
system.l2.demand_miss_rate::total            0.179697                       # miss rate for demand accesses
system.l2.overall_miss_rate::.cpu.inst       0.406619                       # miss rate for overall accesses
system.l2.overall_miss_rate::.cpu.data       0.136219                       # miss rate for overall accesses
system.l2.overall_miss_rate::total           0.179697                       # miss rate for overall accesses
system.l2.demand_avg_miss_latency::.cpu.inst 78927.717701                       # average overall miss latency
system.l2.demand_avg_miss_latency::.cpu.data 76010.904948                       # average overall miss latency
system.l2.demand_avg_miss_latency::total 77072.168151                       # average overall miss latency
system.l2.overall_avg_miss_latency::.cpu.inst 78927.717701                       # average overall miss latency
system.l2.overall_avg_miss_latency::.cpu.data 76010.904948                       # average overall miss latency
system.l2.overall_avg_miss_latency::total 77072.168151                       # average overall miss latency
system.l2.blocked_cycles::no_mshrs                  0                       # number of cycles access was blocked
system.l2.blocked_cycles::no_targets                0                       # number of cycles access was blocked
system.l2.blocked::no_mshrs                         0                       # number of cycles access was blocked
system.l2.blocked::no_targets                       0                       # number of cycles access was blocked
system.l2.avg_blocked_cycles::no_mshrs            nan                       # average number of cycles each access was blocked
system.l2.avg_blocked_cycles::no_targets          nan                       # average number of cycles each access was blocked
system.l2.writebacks::.writebacks                  11                       # number of writebacks
system.l2.writebacks::total                        11                       # number of writebacks
system.l2.demand_mshr_hits::.cpu.data               1                       # number of demand (read+write) MSHR hits
system.l2.demand_mshr_hits::total                   1                       # number of demand (read+write) MSHR hits
system.l2.overall_mshr_hits::.cpu.data              1                       # number of overall MSHR hits
system.l2.overall_mshr_hits::total                  1                       # number of overall MSHR hits
system.l2.demand_mshr_misses::.cpu.inst          1757                       # number of demand (read+write) MSHR misses
system.l2.demand_mshr_misses::.cpu.data          3071                       # number of demand (read+write) MSHR misses
system.l2.demand_mshr_misses::total              4828                       # number of demand (read+write) MSHR misses
system.l2.overall_mshr_misses::.cpu.inst         1757                       # number of overall MSHR misses
system.l2.overall_mshr_misses::.cpu.data         3071                       # number of overall MSHR misses
system.l2.overall_mshr_misses::total             4828                       # number of overall MSHR misses
system.l2.demand_mshr_miss_latency::.cpu.inst    121116000                       # number of demand (read+write) MSHR miss cycles
system.l2.demand_mshr_miss_latency::.cpu.data    202701000                       # number of demand (read+write) MSHR miss cycles
system.l2.demand_mshr_miss_latency::total    323817000                       # number of demand (read+write) MSHR miss cycles
system.l2.overall_mshr_miss_latency::.cpu.inst    121116000                       # number of overall MSHR miss cycles
system.l2.overall_mshr_miss_latency::.cpu.data    202701000                       # number of overall MSHR miss cycles
system.l2.overall_mshr_miss_latency::total    323817000                       # number of overall MSHR miss cycles
system.l2.demand_mshr_miss_rate::.cpu.inst     0.406619                       # mshr miss rate for demand accesses
system.l2.demand_mshr_miss_rate::.cpu.data     0.136174                       # mshr miss rate for demand accesses
system.l2.demand_mshr_miss_rate::total       0.179660                       # mshr miss rate for demand accesses
system.l2.overall_mshr_miss_rate::.cpu.inst     0.406619                       # mshr miss rate for overall accesses
system.l2.overall_mshr_miss_rate::.cpu.data     0.136174                       # mshr miss rate for overall accesses
system.l2.overall_mshr_miss_rate::total      0.179660                       # mshr miss rate for overall accesses
system.l2.demand_avg_mshr_miss_latency::.cpu.inst 68933.409220                       # average overall mshr miss latency
system.l2.demand_avg_mshr_miss_latency::.cpu.data 66004.884402                       # average overall mshr miss latency
system.l2.demand_avg_mshr_miss_latency::total 67070.629660                       # average overall mshr miss latency
system.l2.overall_avg_mshr_miss_latency::.cpu.inst 68933.409220                       # average overall mshr miss latency
system.l2.overall_avg_mshr_miss_latency::.cpu.data 66004.884402                       # average overall mshr miss latency
system.l2.overall_avg_mshr_miss_latency::total 67070.629660                       # average overall mshr miss latency
system.l2.replacements                             49                       # number of replacements
system.l2.WritebackDirty_hits::.writebacks        21509                       # number of WritebackDirty hits
system.l2.WritebackDirty_hits::total            21509                       # number of WritebackDirty hits
system.l2.WritebackDirty_accesses::.writebacks        21509                       # number of WritebackDirty accesses(hits+misses)
system.l2.WritebackDirty_accesses::total        21509                       # number of WritebackDirty accesses(hits+misses)
system.l2.WritebackClean_hits::.writebacks         3805                       # number of WritebackClean hits
system.l2.WritebackClean_hits::total             3805                       # number of WritebackClean hits
system.l2.WritebackClean_accesses::.writebacks         3805                       # number of WritebackClean accesses(hits+misses)
system.l2.WritebackClean_accesses::total         3805                       # number of WritebackClean accesses(hits+misses)
system.l2.CleanEvict_mshr_misses::.writebacks            1                       # number of CleanEvict MSHR misses
system.l2.CleanEvict_mshr_misses::total             1                       # number of CleanEvict MSHR misses
system.l2.CleanEvict_mshr_miss_rate::.writebacks          inf                       # mshr miss rate for CleanEvict accesses
system.l2.CleanEvict_mshr_miss_rate::total          inf                       # mshr miss rate for CleanEvict accesses
system.l2.ReadExReq_hits::.cpu.data              6116                       # number of ReadExReq hits
system.l2.ReadExReq_hits::total                  6116                       # number of ReadExReq hits
system.l2.ReadExReq_misses::.cpu.data            2811                       # number of ReadExReq misses
system.l2.ReadExReq_misses::total                2811                       # number of ReadExReq misses
system.l2.ReadExReq_miss_latency::.cpu.data    211625000                       # number of ReadExReq miss cycles
system.l2.ReadExReq_miss_latency::total     211625000                       # number of ReadExReq miss cycles
system.l2.ReadExReq_accesses::.cpu.data          8927                       # number of ReadExReq accesses(hits+misses)
system.l2.ReadExReq_accesses::total              8927                       # number of ReadExReq accesses(hits+misses)
system.l2.ReadExReq_miss_rate::.cpu.data     0.314887                       # miss rate for ReadExReq accesses
system.l2.ReadExReq_miss_rate::total         0.314887                       # miss rate for ReadExReq accesses
system.l2.ReadExReq_avg_miss_latency::.cpu.data 75284.596229                       # average ReadExReq miss latency
system.l2.ReadExReq_avg_miss_latency::total 75284.596229                       # average ReadExReq miss latency
system.l2.ReadExReq_mshr_misses::.cpu.data         2811                       # number of ReadExReq MSHR misses
system.l2.ReadExReq_mshr_misses::total           2811                       # number of ReadExReq MSHR misses
system.l2.ReadExReq_mshr_miss_latency::.cpu.data    183515000                       # number of ReadExReq MSHR miss cycles
system.l2.ReadExReq_mshr_miss_latency::total    183515000                       # number of ReadExReq MSHR miss cycles
system.l2.ReadExReq_mshr_miss_rate::.cpu.data     0.314887                       # mshr miss rate for ReadExReq accesses
system.l2.ReadExReq_mshr_miss_rate::total     0.314887                       # mshr miss rate for ReadExReq accesses
system.l2.ReadExReq_avg_mshr_miss_latency::.cpu.data 65284.596229                       # average ReadExReq mshr miss latency
system.l2.ReadExReq_avg_mshr_miss_latency::total 65284.596229                       # average ReadExReq mshr miss latency
system.l2.ReadCleanReq_hits::.cpu.inst           2564                       # number of ReadCleanReq hits
system.l2.ReadCleanReq_hits::total               2564                       # number of ReadCleanReq hits
system.l2.ReadCleanReq_misses::.cpu.inst         1757                       # number of ReadCleanReq misses
system.l2.ReadCleanReq_misses::total             1757                       # number of ReadCleanReq misses
system.l2.ReadCleanReq_miss_latency::.cpu.inst    138676000                       # number of ReadCleanReq miss cycles
system.l2.ReadCleanReq_miss_latency::total    138676000                       # number of ReadCleanReq miss cycles
system.l2.ReadCleanReq_accesses::.cpu.inst         4321                       # number of ReadCleanReq accesses(hits+misses)
system.l2.ReadCleanReq_accesses::total           4321                       # number of ReadCleanReq accesses(hits+misses)
system.l2.ReadCleanReq_miss_rate::.cpu.inst     0.406619                       # miss rate for ReadCleanReq accesses
system.l2.ReadCleanReq_miss_rate::total      0.406619                       # miss rate for ReadCleanReq accesses
system.l2.ReadCleanReq_avg_miss_latency::.cpu.inst 78927.717701                       # average ReadCleanReq miss latency
system.l2.ReadCleanReq_avg_miss_latency::total 78927.717701                       # average ReadCleanReq miss latency
system.l2.ReadCleanReq_mshr_misses::.cpu.inst         1757                       # number of ReadCleanReq MSHR misses
system.l2.ReadCleanReq_mshr_misses::total         1757                       # number of ReadCleanReq MSHR misses
system.l2.ReadCleanReq_mshr_miss_latency::.cpu.inst    121116000                       # number of ReadCleanReq MSHR miss cycles
system.l2.ReadCleanReq_mshr_miss_latency::total    121116000                       # number of ReadCleanReq MSHR miss cycles
system.l2.ReadCleanReq_mshr_miss_rate::.cpu.inst     0.406619                       # mshr miss rate for ReadCleanReq accesses
system.l2.ReadCleanReq_mshr_miss_rate::total     0.406619                       # mshr miss rate for ReadCleanReq accesses
system.l2.ReadCleanReq_avg_mshr_miss_latency::.cpu.inst 68933.409220                       # average ReadCleanReq mshr miss latency
system.l2.ReadCleanReq_avg_mshr_miss_latency::total 68933.409220                       # average ReadCleanReq mshr miss latency
system.l2.ReadSharedReq_hits::.cpu.data         13364                       # number of ReadSharedReq hits
system.l2.ReadSharedReq_hits::total             13364                       # number of ReadSharedReq hits
system.l2.ReadSharedReq_misses::.cpu.data          261                       # number of ReadSharedReq misses
system.l2.ReadSharedReq_misses::total             261                       # number of ReadSharedReq misses
system.l2.ReadSharedReq_miss_latency::.cpu.data     21880500                       # number of ReadSharedReq miss cycles
system.l2.ReadSharedReq_miss_latency::total     21880500                       # number of ReadSharedReq miss cycles
system.l2.ReadSharedReq_accesses::.cpu.data        13625                       # number of ReadSharedReq accesses(hits+misses)
system.l2.ReadSharedReq_accesses::total         13625                       # number of ReadSharedReq accesses(hits+misses)
system.l2.ReadSharedReq_miss_rate::.cpu.data     0.019156                       # miss rate for ReadSharedReq accesses
system.l2.ReadSharedReq_miss_rate::total     0.019156                       # miss rate for ReadSharedReq accesses
system.l2.ReadSharedReq_avg_miss_latency::.cpu.data 83833.333333                       # average ReadSharedReq miss latency
system.l2.ReadSharedReq_avg_miss_latency::total 83833.333333                       # average ReadSharedReq miss latency
system.l2.ReadSharedReq_mshr_hits::.cpu.data            1                       # number of ReadSharedReq MSHR hits
system.l2.ReadSharedReq_mshr_hits::total            1                       # number of ReadSharedReq MSHR hits
system.l2.ReadSharedReq_mshr_misses::.cpu.data          260                       # number of ReadSharedReq MSHR misses
system.l2.ReadSharedReq_mshr_misses::total          260                       # number of ReadSharedReq MSHR misses
system.l2.ReadSharedReq_mshr_miss_latency::.cpu.data     19186000                       # number of ReadSharedReq MSHR miss cycles
system.l2.ReadSharedReq_mshr_miss_latency::total     19186000                       # number of ReadSharedReq MSHR miss cycles
system.l2.ReadSharedReq_mshr_miss_rate::.cpu.data     0.019083                       # mshr miss rate for ReadSharedReq accesses
system.l2.ReadSharedReq_mshr_miss_rate::total     0.019083                       # mshr miss rate for ReadSharedReq accesses
system.l2.ReadSharedReq_avg_mshr_miss_latency::.cpu.data 73792.307692                       # average ReadSharedReq mshr miss latency
system.l2.ReadSharedReq_avg_mshr_miss_latency::total 73792.307692                       # average ReadSharedReq mshr miss latency
system.l2.power_state.pwrStateResidencyTicks::UNDEFINED   1988693500                       # Cumulative time (in ticks) in various power states
system.l2.tags.tagsinuse                  3654.014136                       # Cycle average of tags in use
system.l2.tags.total_refs                       52713                       # Total number of references to valid blocks.
system.l2.tags.sampled_refs                      4835                       # Sample count of references to valid blocks.
system.l2.tags.avg_refs                     10.902378                       # Average number of references to valid blocks.
system.l2.tags.warmup_cycle                     77000                       # Cycle when the warmup percentage was hit.
system.l2.tags.occ_blocks::.writebacks       3.699483                       # Average occupied blocks per requestor
system.l2.tags.occ_blocks::.cpu.inst      1410.633184                       # Average occupied blocks per requestor
system.l2.tags.occ_blocks::.cpu.data      2239.681469                       # Average occupied blocks per requestor
system.l2.tags.occ_percent::.writebacks      0.000226                       # Average percentage of cache occupancy
system.l2.tags.occ_percent::.cpu.inst        0.086098                       # Average percentage of cache occupancy
system.l2.tags.occ_percent::.cpu.data        0.136699                       # Average percentage of cache occupancy
system.l2.tags.occ_percent::total            0.223023                       # Average percentage of cache occupancy
system.l2.tags.occ_task_id_blocks::1024          4786                       # Occupied blocks per task id
system.l2.tags.age_task_id_blocks_1024::0           81                       # Occupied blocks per task id
system.l2.tags.age_task_id_blocks_1024::2          414                       # Occupied blocks per task id
system.l2.tags.age_task_id_blocks_1024::3         4291                       # Occupied blocks per task id
system.l2.tags.occ_task_id_percent::1024     0.292114                       # Percentage of cache occupancy per task id
system.l2.tags.tag_accesses                    110267                       # Number of tag accesses
system.l2.tags.data_accesses                   110267                       # Number of data accesses
system.l2.tags.power_state.pwrStateResidencyTicks::UNDEFINED   1988693500                       # Cumulative time (in ticks) in various power states
system.cpu_voltage_domain.voltage                   1                       # Voltage in Volts
system.mem_ctrls.avgPriority_.writebacks::samples        10.00                       # Average QoS priority value for accepted requests
system.mem_ctrls.avgPriority_.cpu.inst::samples      1756.00                       # Average QoS priority value for accepted requests
system.mem_ctrls.avgPriority_.cpu.data::samples      3069.00                       # Average QoS priority value for accepted requests
system.mem_ctrls.priorityMinLatency      0.000000018750                       # per QoS priority minimum request to response latency (s)
system.mem_ctrls.priorityMaxLatency      0.000000601000                       # per QoS priority maximum request to response latency (s)
system.mem_ctrls.numReadWriteTurnArounds            0                       # Number of turnarounds from READ to WRITE
system.mem_ctrls.numWriteReadTurnArounds            0                       # Number of turnarounds from WRITE to READ
system.mem_ctrls.numStayReadState               10109                       # Number of times bus staying in READ state
system.mem_ctrls.numStayWriteState                  0                       # Number of times bus staying in WRITE state
system.mem_ctrls.readReqs                        4827                       # Number of read requests accepted
system.mem_ctrls.writeReqs                         11                       # Number of write requests accepted
system.mem_ctrls.readBursts                      4827                       # Number of controller read bursts, including those serviced by the write queue
system.mem_ctrls.writeBursts                       11                       # Number of controller write bursts, including those merged in the write queue
system.mem_ctrls.servicedByWrQ                      2                       # Number of controller read bursts serviced by the write queue
system.mem_ctrls.mergedWrBursts                     1                       # Number of controller write bursts merged with an existing one
system.mem_ctrls.neitherReadNorWriteReqs            0                       # Number of requests that are neither read nor write
system.mem_ctrls.avgRdQLen                       1.04                       # Average read queue length when enqueuing
system.mem_ctrls.avgWrQLen                       3.12                       # Average write queue length when enqueuing
system.mem_ctrls.numRdRetry                         0                       # Number of times read queue was full causing retry
system.mem_ctrls.numWrRetry                         0                       # Number of times write queue was full causing retry
system.mem_ctrls.readPktSize::0                     0                       # Read request sizes (log2)
system.mem_ctrls.readPktSize::1                     0                       # Read request sizes (log2)
system.mem_ctrls.readPktSize::2                     0                       # Read request sizes (log2)
system.mem_ctrls.readPktSize::3                     0                       # Read request sizes (log2)
system.mem_ctrls.readPktSize::4                     0                       # Read request sizes (log2)
system.mem_ctrls.readPktSize::5                     0                       # Read request sizes (log2)
system.mem_ctrls.readPktSize::6                  4827                       # Read request sizes (log2)
system.mem_ctrls.writePktSize::0                    0                       # Write request sizes (log2)
system.mem_ctrls.writePktSize::1                    0                       # Write request sizes (log2)
system.mem_ctrls.writePktSize::2                    0                       # Write request sizes (log2)
system.mem_ctrls.writePktSize::3                    0                       # Write request sizes (log2)
system.mem_ctrls.writePktSize::4                    0                       # Write request sizes (log2)
system.mem_ctrls.writePktSize::5                    0                       # Write request sizes (log2)
system.mem_ctrls.writePktSize::6                   11                       # Write request sizes (log2)
system.mem_ctrls.rdQLenPdf::0                    4057                       # What read queue length does an incoming req see
system.mem_ctrls.rdQLenPdf::1                     591                       # What read queue length does an incoming req see
system.mem_ctrls.rdQLenPdf::2                     141                       # What read queue length does an incoming req see
system.mem_ctrls.rdQLenPdf::3                      27                       # What read queue length does an incoming req see
system.mem_ctrls.rdQLenPdf::4                       9                       # What read queue length does an incoming req see
system.mem_ctrls.rdQLenPdf::5                       0                       # What read queue length does an incoming req see
system.mem_ctrls.rdQLenPdf::6                       0                       # What read queue length does an incoming req see
system.mem_ctrls.rdQLenPdf::7                       0                       # What read queue length does an incoming req see
system.mem_ctrls.rdQLenPdf::8                       0                       # What read queue length does an incoming req see
system.mem_ctrls.rdQLenPdf::9                       0                       # What read queue length does an incoming req see
system.mem_ctrls.rdQLenPdf::10                      0                       # What read queue length does an incoming req see
system.mem_ctrls.rdQLenPdf::11                      0                       # What read queue length does an incoming req see
system.mem_ctrls.rdQLenPdf::12                      0                       # What read queue length does an incoming req see
system.mem_ctrls.rdQLenPdf::13                      0                       # What read queue length does an incoming req see
system.mem_ctrls.rdQLenPdf::14                      0                       # What read queue length does an incoming req see
system.mem_ctrls.rdQLenPdf::15                      0                       # What read queue length does an incoming req see
system.mem_ctrls.rdQLenPdf::16                      0                       # What read queue length does an incoming req see
system.mem_ctrls.rdQLenPdf::17                      0                       # What read queue length does an incoming req see
system.mem_ctrls.rdQLenPdf::18                      0                       # What read queue length does an incoming req see
system.mem_ctrls.rdQLenPdf::19                      0                       # What read queue length does an incoming req see
system.mem_ctrls.rdQLenPdf::20                      0                       # What read queue length does an incoming req see
system.mem_ctrls.rdQLenPdf::21                      0                       # What read queue length does an incoming req see
system.mem_ctrls.rdQLenPdf::22                      0                       # What read queue length does an incoming req see
system.mem_ctrls.rdQLenPdf::23                      0                       # What read queue length does an incoming req see
system.mem_ctrls.rdQLenPdf::24                      0                       # What read queue length does an incoming req see
system.mem_ctrls.rdQLenPdf::25                      0                       # What read queue length does an incoming req see
system.mem_ctrls.rdQLenPdf::26                      0                       # What read queue length does an incoming req see
system.mem_ctrls.rdQLenPdf::27                      0                       # What read queue length does an incoming req see
system.mem_ctrls.rdQLenPdf::28                      0                       # What read queue length does an incoming req see
system.mem_ctrls.rdQLenPdf::29                      0                       # What read queue length does an incoming req see
system.mem_ctrls.rdQLenPdf::30                      0                       # What read queue length does an incoming req see
system.mem_ctrls.rdQLenPdf::31                      0                       # What read queue length does an incoming req see
system.mem_ctrls.wrQLenPdf::0                       1                       # What write queue length does an incoming req see
system.mem_ctrls.wrQLenPdf::1                       1                       # What write queue length does an incoming req see
system.mem_ctrls.wrQLenPdf::2                       1                       # What write queue length does an incoming req see
system.mem_ctrls.wrQLenPdf::3                       1                       # What write queue length does an incoming req see
system.mem_ctrls.wrQLenPdf::4                       1                       # What write queue length does an incoming req see
system.mem_ctrls.wrQLenPdf::5                       1                       # What write queue length does an incoming req see
system.mem_ctrls.wrQLenPdf::6                       1                       # What write queue length does an incoming req see
system.mem_ctrls.wrQLenPdf::7                       1                       # What write queue length does an incoming req see
system.mem_ctrls.wrQLenPdf::8                       1                       # What write queue length does an incoming req see
system.mem_ctrls.wrQLenPdf::9                       1                       # What write queue length does an incoming req see
system.mem_ctrls.wrQLenPdf::10                      0                       # What write queue length does an incoming req see
system.mem_ctrls.wrQLenPdf::11                      0                       # What write queue length does an incoming req see
system.mem_ctrls.wrQLenPdf::12                      0                       # What write queue length does an incoming req see
system.mem_ctrls.wrQLenPdf::13                      0                       # What write queue length does an incoming req see
system.mem_ctrls.wrQLenPdf::14                      0                       # What write queue length does an incoming req see
system.mem_ctrls.wrQLenPdf::15                      0                       # What write queue length does an incoming req see
system.mem_ctrls.wrQLenPdf::16                      0                       # What write queue length does an incoming req see
system.mem_ctrls.wrQLenPdf::17                      0                       # What write queue length does an incoming req see
system.mem_ctrls.wrQLenPdf::18                      0                       # What write queue length does an incoming req see
system.mem_ctrls.wrQLenPdf::19                      0                       # What write queue length does an incoming req see
system.mem_ctrls.wrQLenPdf::20                      0                       # What write queue length does an incoming req see
system.mem_ctrls.wrQLenPdf::21                      0                       # What write queue length does an incoming req see
system.mem_ctrls.wrQLenPdf::22                      0                       # What write queue length does an incoming req see
system.mem_ctrls.wrQLenPdf::23                      0                       # What write queue length does an incoming req see
system.mem_ctrls.wrQLenPdf::24                      0                       # What write queue length does an incoming req see
system.mem_ctrls.wrQLenPdf::25                      0                       # What write queue length does an incoming req see
system.mem_ctrls.wrQLenPdf::26                      0                       # What write queue length does an incoming req see
system.mem_ctrls.wrQLenPdf::27                      0                       # What write queue length does an incoming req see
system.mem_ctrls.wrQLenPdf::28                      0                       # What write queue length does an incoming req see
system.mem_ctrls.wrQLenPdf::29                      0                       # What write queue length does an incoming req see
system.mem_ctrls.wrQLenPdf::30                      0                       # What write queue length does an incoming req see
system.mem_ctrls.wrQLenPdf::31                      0                       # What write queue length does an incoming req see
system.mem_ctrls.wrQLenPdf::32                      0                       # What write queue length does an incoming req see
system.mem_ctrls.wrQLenPdf::33                      0                       # What write queue length does an incoming req see
system.mem_ctrls.wrQLenPdf::34                      0                       # What write queue length does an incoming req see
system.mem_ctrls.wrQLenPdf::35                      0                       # What write queue length does an incoming req see
system.mem_ctrls.wrQLenPdf::36                      0                       # What write queue length does an incoming req see
system.mem_ctrls.wrQLenPdf::37                      0                       # What write queue length does an incoming req see
system.mem_ctrls.wrQLenPdf::38                      0                       # What write queue length does an incoming req see
system.mem_ctrls.wrQLenPdf::39                      0                       # What write queue length does an incoming req see
system.mem_ctrls.wrQLenPdf::40                      0                       # What write queue length does an incoming req see
system.mem_ctrls.wrQLenPdf::41                      0                       # What write queue length does an incoming req see
system.mem_ctrls.wrQLenPdf::42                      0                       # What write queue length does an incoming req see
system.mem_ctrls.wrQLenPdf::43                      0                       # What write queue length does an incoming req see
system.mem_ctrls.wrQLenPdf::44                      0                       # What write queue length does an incoming req see
system.mem_ctrls.wrQLenPdf::45                      0                       # What write queue length does an incoming req see
system.mem_ctrls.wrQLenPdf::46                      0                       # What write queue length does an incoming req see
system.mem_ctrls.wrQLenPdf::47                      0                       # What write queue length does an incoming req see
system.mem_ctrls.wrQLenPdf::48                      0                       # What write queue length does an incoming req see
system.mem_ctrls.wrQLenPdf::49                      0                       # What write queue length does an incoming req see
system.mem_ctrls.wrQLenPdf::50                      0                       # What write queue length does an incoming req see
system.mem_ctrls.wrQLenPdf::51                      0                       # What write queue length does an incoming req see
system.mem_ctrls.wrQLenPdf::52                      0                       # What write queue length does an incoming req see
system.mem_ctrls.wrQLenPdf::53                      0                       # What write queue length does an incoming req see
system.mem_ctrls.wrQLenPdf::54                      0                       # What write queue length does an incoming req see
system.mem_ctrls.wrQLenPdf::55                      0                       # What write queue length does an incoming req see
system.mem_ctrls.wrQLenPdf::56                      0                       # What write queue length does an incoming req see
system.mem_ctrls.wrQLenPdf::57                      0                       # What write queue length does an incoming req see
system.mem_ctrls.wrQLenPdf::58                      0                       # What write queue length does an incoming req see
system.mem_ctrls.wrQLenPdf::59                      0                       # What write queue length does an incoming req see
system.mem_ctrls.wrQLenPdf::60                      0                       # What write queue length does an incoming req see
system.mem_ctrls.wrQLenPdf::61                      0                       # What write queue length does an incoming req see
system.mem_ctrls.wrQLenPdf::62                      0                       # What write queue length does an incoming req see
system.mem_ctrls.wrQLenPdf::63                      0                       # What write queue length does an incoming req see
system.mem_ctrls.bytesReadWrQ                     128                       # Total number of bytes read from write queue
system.mem_ctrls.bytesReadSys                  308928                       # Total read bytes from the system interface side
system.mem_ctrls.bytesWrittenSys                  704                       # Total written bytes from the system interface side
system.mem_ctrls.avgRdBWSys                    155.34                       # Average system read bandwidth in MiByte/s
system.mem_ctrls.avgWrBWSys                      0.35                       # Average system write bandwidth in MiByte/s
system.mem_ctrls.totGap                    1988616000                       # Total gap between requests
system.mem_ctrls.avgGap                     411040.93                       # Average gap between requests
system.mem_ctrls.requestorReadBytes::.cpu.inst       112384                       # Per-requestor bytes read from memory
system.mem_ctrls.requestorReadBytes::.cpu.data       196416                       # Per-requestor bytes read from memory
system.mem_ctrls.requestorReadRate::.cpu.inst 56511473.487493172288                       # Per-requestor bytes read from memory rate (Bytes/sec)
system.mem_ctrls.requestorReadRate::.cpu.data 98766350.873073205352                       # Per-requestor bytes read from memory rate (Bytes/sec)
system.mem_ctrls.requestorReadAccesses::.cpu.inst         1756                       # Per-requestor read serviced memory accesses
system.mem_ctrls.requestorReadAccesses::.cpu.data         3071                       # Per-requestor read serviced memory accesses
system.mem_ctrls.requestorWriteAccesses::.writebacks           11                       # Per-requestor write serviced memory accesses
system.mem_ctrls.requestorReadTotalLat::.cpu.inst     48912500                       # Per-requestor read total memory access latency
system.mem_ctrls.requestorReadTotalLat::.cpu.data     76802000                       # Per-requestor read total memory access latency
system.mem_ctrls.requestorReadAvgLat::.cpu.inst     27854.50                       # Per-requestor read average memory access latency
system.mem_ctrls.requestorReadAvgLat::.cpu.data     25008.79                       # Per-requestor read average memory access latency
system.mem_ctrls.requestorWriteAvgLat::.writebacks         0.00                       # Per-requestor write average memory access latency
system.mem_ctrls.dram.bytes_read::.cpu.inst       112384                       # Number of bytes read from this memory
system.mem_ctrls.dram.bytes_read::.cpu.data       196544                       # Number of bytes read from this memory
system.mem_ctrls.dram.bytes_read::total        308928                       # Number of bytes read from this memory
system.mem_ctrls.dram.bytes_inst_read::.cpu.inst       112384                       # Number of instructions bytes read from this memory
system.mem_ctrls.dram.bytes_inst_read::total       112384                       # Number of instructions bytes read from this memory
system.mem_ctrls.dram.bytes_written::.writebacks          704                       # Number of bytes written to this memory
system.mem_ctrls.dram.bytes_written::total          704                       # Number of bytes written to this memory
system.mem_ctrls.dram.num_reads::.cpu.inst         1756                       # Number of read requests responded to by this memory
system.mem_ctrls.dram.num_reads::.cpu.data         3071                       # Number of read requests responded to by this memory
system.mem_ctrls.dram.num_reads::total           4827                       # Number of read requests responded to by this memory
system.mem_ctrls.dram.num_writes::.writebacks           11                       # Number of write requests responded to by this memory
system.mem_ctrls.dram.num_writes::total            11                       # Number of write requests responded to by this memory
system.mem_ctrls.dram.bw_read::.cpu.inst     56511473                       # Total read bandwidth from this memory (bytes/s)
system.mem_ctrls.dram.bw_read::.cpu.data     98830715                       # Total read bandwidth from this memory (bytes/s)
system.mem_ctrls.dram.bw_read::total        155342188                       # Total read bandwidth from this memory (bytes/s)
system.mem_ctrls.dram.bw_inst_read::.cpu.inst     56511473                       # Instruction read bandwidth from this memory (bytes/s)
system.mem_ctrls.dram.bw_inst_read::total     56511473                       # Instruction read bandwidth from this memory (bytes/s)
system.mem_ctrls.dram.bw_write::.writebacks       354001                       # Write bandwidth from this memory (bytes/s)
system.mem_ctrls.dram.bw_write::total          354001                       # Write bandwidth from this memory (bytes/s)
system.mem_ctrls.dram.bw_total::.writebacks       354001                       # Total bandwidth to/from this memory (bytes/s)
system.mem_ctrls.dram.bw_total::.cpu.inst     56511473                       # Total bandwidth to/from this memory (bytes/s)
system.mem_ctrls.dram.bw_total::.cpu.data     98830715                       # Total bandwidth to/from this memory (bytes/s)
system.mem_ctrls.dram.bw_total::total       155696189                       # Total bandwidth to/from this memory (bytes/s)
system.mem_ctrls.dram.readBursts                 4825                       # Number of DRAM read bursts
system.mem_ctrls.dram.writeBursts                   0                       # Number of DRAM write bursts
system.mem_ctrls.dram.perBankRdBursts::0          362                       # Per bank write bursts
system.mem_ctrls.dram.perBankRdBursts::1          374                       # Per bank write bursts
system.mem_ctrls.dram.perBankRdBursts::2          496                       # Per bank write bursts
system.mem_ctrls.dram.perBankRdBursts::3          386                       # Per bank write bursts
system.mem_ctrls.dram.perBankRdBursts::4          348                       # Per bank write bursts
system.mem_ctrls.dram.perBankRdBursts::5          391                       # Per bank write bursts
system.mem_ctrls.dram.perBankRdBursts::6          252                       # Per bank write bursts
system.mem_ctrls.dram.perBankRdBursts::7          196                       # Per bank write bursts
system.mem_ctrls.dram.perBankRdBursts::8          249                       # Per bank write bursts
system.mem_ctrls.dram.perBankRdBursts::9          271                       # Per bank write bursts
system.mem_ctrls.dram.perBankRdBursts::10          260                       # Per bank write bursts
system.mem_ctrls.dram.perBankRdBursts::11          179                       # Per bank write bursts
system.mem_ctrls.dram.perBankRdBursts::12          244                       # Per bank write bursts
system.mem_ctrls.dram.perBankRdBursts::13          258                       # Per bank write bursts
system.mem_ctrls.dram.perBankRdBursts::14          307                       # Per bank write bursts
system.mem_ctrls.dram.perBankRdBursts::15          252                       # Per bank write bursts
system.mem_ctrls.dram.perBankWrBursts::0            0                       # Per bank write bursts
system.mem_ctrls.dram.perBankWrBursts::1            0                       # Per bank write bursts
system.mem_ctrls.dram.perBankWrBursts::2            0                       # Per bank write bursts
system.mem_ctrls.dram.perBankWrBursts::3            0                       # Per bank write bursts
system.mem_ctrls.dram.perBankWrBursts::4            0                       # Per bank write bursts
system.mem_ctrls.dram.perBankWrBursts::5            0                       # Per bank write bursts
system.mem_ctrls.dram.perBankWrBursts::6            0                       # Per bank write bursts
system.mem_ctrls.dram.perBankWrBursts::7            0                       # Per bank write bursts
system.mem_ctrls.dram.perBankWrBursts::8            0                       # Per bank write bursts
system.mem_ctrls.dram.perBankWrBursts::9            0                       # Per bank write bursts
system.mem_ctrls.dram.perBankWrBursts::10            0                       # Per bank write bursts
system.mem_ctrls.dram.perBankWrBursts::11            0                       # Per bank write bursts
system.mem_ctrls.dram.perBankWrBursts::12            0                       # Per bank write bursts
system.mem_ctrls.dram.perBankWrBursts::13            0                       # Per bank write bursts
system.mem_ctrls.dram.perBankWrBursts::14            0                       # Per bank write bursts
system.mem_ctrls.dram.perBankWrBursts::15            0                       # Per bank write bursts
system.mem_ctrls.dram.totQLat                35245750                       # Total ticks spent queuing
system.mem_ctrls.dram.totBusLat              24125000                       # Total ticks spent in databus transfers
system.mem_ctrls.dram.totMemAccLat          125714500                       # Total ticks spent from burst creation until serviced by the DRAM
system.mem_ctrls.dram.avgQLat                 7304.82                       # Average queueing delay per DRAM burst
system.mem_ctrls.dram.avgBusLat               5000.00                       # Average bus latency per DRAM burst
system.mem_ctrls.dram.avgMemAccLat           26054.82                       # Average memory access latency per DRAM burst
system.mem_ctrls.dram.readRowHits                3950                       # Number of row buffer hits during reads
system.mem_ctrls.dram.writeRowHits                  0                       # Number of row buffer hits during writes
system.mem_ctrls.dram.readRowHitRate            81.87                       # Row buffer hit rate for reads
system.mem_ctrls.dram.writeRowHitRate             nan                       # Row buffer hit rate for writes
system.mem_ctrls.dram.bytesPerActivate::samples          865                       # Bytes accessed per row activation
system.mem_ctrls.dram.bytesPerActivate::mean   355.070520                       # Bytes accessed per row activation
system.mem_ctrls.dram.bytesPerActivate::gmean   227.411478                       # Bytes accessed per row activation
system.mem_ctrls.dram.bytesPerActivate::stdev   318.874011                       # Bytes accessed per row activation
system.mem_ctrls.dram.bytesPerActivate::0-127          232     26.82%     26.82% # Bytes accessed per row activation
system.mem_ctrls.dram.bytesPerActivate::128-255          194     22.43%     49.25% # Bytes accessed per row activation
system.mem_ctrls.dram.bytesPerActivate::256-383          115     13.29%     62.54% # Bytes accessed per row activation
system.mem_ctrls.dram.bytesPerActivate::384-511           74      8.55%     71.10% # Bytes accessed per row activation
system.mem_ctrls.dram.bytesPerActivate::512-639           74      8.55%     79.65% # Bytes accessed per row activation
[...]
system.cpu.dcache.SoftPFReq_hits::.cpu.data         7762                       # number of SoftPFReq hits
system.cpu.dcache.SoftPFReq_hits::total          7762                       # number of SoftPFReq hits
system.cpu.dcache.SoftPFReq_misses::.cpu.data          614                       # number of SoftPFReq misses
system.cpu.dcache.SoftPFReq_misses::total          614                       # number of SoftPFReq misses
system.cpu.dcache.SoftPFReq_accesses::.cpu.data         8376                       # number of SoftPFReq accesses(hits+misses)
system.cpu.dcache.SoftPFReq_accesses::total         8376                       # number of SoftPFReq accesses(hits+misses)
system.cpu.dcache.SoftPFReq_miss_rate::.cpu.data     0.073305                       # miss rate for SoftPFReq accesses
system.cpu.dcache.SoftPFReq_miss_rate::total     0.073305                       # miss rate for SoftPFReq accesses
system.cpu.dcache.SoftPFReq_mshr_misses::.cpu.data          436                       # number of SoftPFReq MSHR misses
system.cpu.dcache.SoftPFReq_mshr_misses::total          436                       # number of SoftPFReq MSHR misses
system.cpu.dcache.SoftPFReq_mshr_miss_latency::.cpu.data      5304000                       # number of SoftPFReq MSHR miss cycles
system.cpu.dcache.SoftPFReq_mshr_miss_latency::total      5304000                       # number of SoftPFReq MSHR miss cycles
system.cpu.dcache.SoftPFReq_mshr_miss_rate::.cpu.data     0.052053                       # mshr miss rate for SoftPFReq accesses
system.cpu.dcache.SoftPFReq_mshr_miss_rate::total     0.052053                       # mshr miss rate for SoftPFReq accesses
system.cpu.dcache.SoftPFReq_avg_mshr_miss_latency::.cpu.data 12165.137615                       # average SoftPFReq mshr miss latency
system.cpu.dcache.SoftPFReq_avg_mshr_miss_latency::total 12165.137615                       # average SoftPFReq mshr miss latency
system.cpu.dcache.power_state.pwrStateResidencyTicks::UNDEFINED   1988693500                       # Cumulative time (in ticks) in various power states
system.cpu.dcache.tags.tagsinuse           500.311297                       # Cycle average of tags in use
system.cpu.dcache.tags.total_refs             1312640                       # Total number of references to valid blocks.
system.cpu.dcache.tags.sampled_refs             22552                       # Sample count of references to valid blocks.
system.cpu.dcache.tags.avg_refs             58.205037                       # Average number of references to valid blocks.
system.cpu.dcache.tags.warmup_cycle            190500                       # Cycle when the warmup percentage was hit.
system.cpu.dcache.tags.occ_blocks::.cpu.data   500.311297                       # Average occupied blocks per requestor
system.cpu.dcache.tags.occ_percent::.cpu.data     0.977171                       # Average percentage of cache occupancy
system.cpu.dcache.tags.occ_percent::total     0.977171                       # Average percentage of cache occupancy
system.cpu.dcache.tags.occ_task_id_blocks::1024          512                       # Occupied blocks per task id
system.cpu.dcache.tags.age_task_id_blocks_1024::0          100                       # Occupied blocks per task id
system.cpu.dcache.tags.age_task_id_blocks_1024::1          404                       # Occupied blocks per task id
system.cpu.dcache.tags.age_task_id_blocks_1024::2            8                       # Occupied blocks per task id
system.cpu.dcache.tags.occ_task_id_percent::1024            1                       # Percentage of cache occupancy per task id
system.cpu.dcache.tags.tag_accesses          10915016                       # Number of tag accesses
system.cpu.dcache.tags.data_accesses         10915016                       # Number of data accesses
system.cpu.dcache.tags.power_state.pwrStateResidencyTicks::UNDEFINED   1988693500                       # Cumulative time (in ticks) in various power states
system.cpu.power_state.pwrStateResidencyTicks::ON   1988693500                       # Cumulative time (in ticks) in various power states
system.cpu.branchPred.lookups                 1376707                       # Number of BP lookups
system.cpu.branchPred.condPredicted           1202562                       # Number of conditional branches predicted
system.cpu.branchPred.condIncorrect             80702                       # Number of conditional branches incorrect
system.cpu.branchPred.BTBLookups               745257                       # Number of BTB lookups
system.cpu.branchPred.BTBHits                  738786                       # Number of BTB hits
system.cpu.branchPred.BTBHitPct             99.131709                       # BTB Hit Percentage
system.cpu.branchPred.RASUsed                   40976                       # Number of times the RAS was used to get a target.
system.cpu.branchPred.RASIncorrect                 19                       # Number of incorrect RAS predictions.
system.cpu.branchPred.indirectLookups           15570                       # Number of indirect predictor lookups.
system.cpu.branchPred.indirectHits              11065                       # Number of indirect target hits.
system.cpu.branchPred.indirectMisses             4505                       # Number of indirect misses.
system.cpu.branchPred.indirectMispredicted          773                       # Number of mispredicted indirect branches.
system.cpu.commit.commitSquashedInsts         3214657                       # The number of squashed insts skipped by commit
system.cpu.commit.commitNonSpecStalls             215                       # The number of times commit has been forced to stall to communicate backwards
system.cpu.commit.branchMispredicts             77079                       # The number of times a branch was mispredicted
system.cpu.commit.numCommittedDist::samples      3400728                       # Number of insts commited each cycle
system.cpu.commit.numCommittedDist::mean     2.070097                       # Number of insts commited each cycle
system.cpu.commit.numCommittedDist::stdev     2.668257                       # Number of insts commited each cycle
system.cpu.commit.numCommittedDist::underflows            0      0.00%      0.00% # Number of insts commited each cycle
system.cpu.commit.numCommittedDist::0         1396688     41.07%     41.07% # Number of insts commited each cycle
system.cpu.commit.numCommittedDist::1          650957     19.14%     60.21% # Number of insts commited each cycle
system.cpu.commit.numCommittedDist::2          307402      9.04%     69.25% # Number of insts commited each cycle
system.cpu.commit.numCommittedDist::3          325499      9.57%     78.82% # Number of insts commited each cycle
system.cpu.commit.numCommittedDist::4          152772      4.49%     83.32% # Number of insts commited each cycle
system.cpu.commit.numCommittedDist::5           68143      2.00%     85.32% # Number of insts commited each cycle
system.cpu.commit.numCommittedDist::6           49641      1.46%     86.78% # Number of insts commited each cycle
system.cpu.commit.numCommittedDist::7           49078      1.44%     88.22% # Number of insts commited each cycle
system.cpu.commit.numCommittedDist::8          400548     11.78%    100.00% # Number of insts commited each cycle
system.cpu.commit.numCommittedDist::overflows            0      0.00%    100.00% # Number of insts commited each cycle
system.cpu.commit.numCommittedDist::min_value            0                       # Number of insts commited each cycle
system.cpu.commit.numCommittedDist::max_value            8                       # Number of insts commited each cycle
system.cpu.commit.numCommittedDist::total      3400728                       # Number of insts commited each cycle
system.cpu.commit.instsCommitted              3827110                       # Number of instructions committed
system.cpu.commit.opsCommitted                7039837                       # Number of ops (including micro ops) committed
system.cpu.commit.memRefs                     1156241                       # Number of memory references committed
system.cpu.commit.loads                        793021                       # Number of loads committed
system.cpu.commit.amos                              0                       # Number of atomic instructions committed
system.cpu.commit.membars                           0                       # Number of memory barriers committed
system.cpu.commit.branches                     810880                       # Number of branches committed
system.cpu.commit.vector                            0                       # Number of committed Vector instructions.
system.cpu.commit.floating                     123616                       # Number of committed floating point instructions.
system.cpu.commit.integer                     6820118                       # Number of committed integer instructions.
system.cpu.commit.functionCalls                 29685                       # Number of function calls committed.
system.cpu.commit.committedInstType_0::No_OpClass       138426      1.97%      1.97% # Class of committed instruction
system.cpu.commit.committedInstType_0::IntAlu      5100061     72.45%     74.41% # Class of committed instruction
system.cpu.commit.committedInstType_0::IntMult        20132      0.29%     74.70% # Class of committed instruction
system.cpu.commit.committedInstType_0::IntDiv       568663      8.08%     82.78% # Class of committed instruction
system.cpu.commit.committedInstType_0::FloatAdd          980      0.01%     82.79% # Class of committed instruction
system.cpu.commit.committedInstType_0::FloatCmp            0      0.00%     82.79% # Class of committed instruction
system.cpu.commit.committedInstType_0::FloatCvt            0      0.00%     82.79% # Class of committed instruction
system.cpu.commit.committedInstType_0::FloatMult            0      0.00%     82.79% # Class of committed instruction
system.cpu.commit.committedInstType_0::FloatMultAcc            0      0.00%     82.79% # Class of committed instruction
system.cpu.commit.committedInstType_0::FloatDiv            0      0.00%     82.79% # Class of committed instruction
system.cpu.commit.committedInstType_0::FloatMisc            0      0.00%     82.79% # Class of committed instruction
system.cpu.commit.committedInstType_0::FloatSqrt            0      0.00%     82.79% # Class of committed instruction
system.cpu.commit.committedInstType_0::SimdAdd         2442      0.03%     82.82% # Class of committed instruction
system.cpu.commit.committedInstType_0::SimdAddAcc            0      0.00%     82.82% # Class of committed instruction
system.cpu.commit.committedInstType_0::SimdAlu        30662      0.44%     83.26% # Class of committed instruction
system.cpu.commit.committedInstType_0::SimdCmp            0      0.00%     83.26% # Class of committed instruction
system.cpu.commit.committedInstType_0::SimdCvt        11988      0.17%     83.43% # Class of committed instruction
system.cpu.commit.committedInstType_0::SimdMisc         8480      0.12%     83.55% # Class of committed instruction
system.cpu.commit.committedInstType_0::SimdMult            0      0.00%     83.55% # Class of committed instruction
system.cpu.commit.committedInstType_0::SimdMultAcc            0      0.00%     83.55% # Class of committed instruction
system.cpu.commit.committedInstType_0::SimdShift         1222      0.02%     83.57% # Class of committed instruction
system.cpu.commit.committedInstType_0::SimdShiftAcc            0      0.00%     83.57% # Class of committed instruction
system.cpu.commit.committedInstType_0::SimdDiv            0      0.00%     83.57% # Class of committed instruction
system.cpu.commit.committedInstType_0::SimdSqrt            0      0.00%     83.57% # Class of committed instruction
system.cpu.commit.committedInstType_0::SimdFloatAdd           16      0.00%     83.57% # Class of committed instruction
system.cpu.commit.committedInstType_0::SimdFloatAlu            0      0.00%     83.57% # Class of committed instruction
system.cpu.commit.committedInstType_0::SimdFloatCmp            0      0.00%     83.57% # Class of committed instruction
system.cpu.commit.committedInstType_0::SimdFloatCvt          393      0.01%     83.57% # Class of committed instruction
system.cpu.commit.committedInstType_0::SimdFloatDiv          131      0.00%     83.58% # Class of committed instruction
system.cpu.commit.committedInstType_0::SimdFloatMisc            0      0.00%     83.58% # Class of committed instruction
system.cpu.commit.committedInstType_0::SimdFloatMult            0      0.00%     83.58% # Class of committed instruction
system.cpu.commit.committedInstType_0::SimdFloatMultAcc            0      0.00%     83.58% # Class of committed instruction
system.cpu.commit.committedInstType_0::SimdFloatSqrt            0      0.00%     83.58% # Class of committed instruction
system.cpu.commit.committedInstType_0::SimdReduceAdd            0      0.00%     83.58% # Class of committed instruction
system.cpu.commit.committedInstType_0::SimdReduceAlu            0      0.00%     83.58% # Class of committed instruction
system.cpu.commit.committedInstType_0::SimdReduceCmp            0      0.00%     83.58% # Class of committed instruction
system.cpu.commit.committedInstType_0::SimdFloatReduceAdd            0      0.00%     83.58% # Class of committed instruction
system.cpu.commit.committedInstType_0::SimdFloatReduceCmp            0      0.00%     83.58% # Class of committed instruction
system.cpu.commit.committedInstType_0::SimdAes            0      0.00%     83.58% # Class of committed instruction
system.cpu.commit.committedInstType_0::SimdAesMix            0      0.00%     83.58% # Class of committed instruction
system.cpu.commit.committedInstType_0::SimdSha1Hash            0      0.00%     83.58% # Class of committed instruction
system.cpu.commit.committedInstType_0::SimdSha1Hash2            0      0.00%     83.58% # Class of committed instruction
system.cpu.commit.committedInstType_0::SimdSha256Hash            0      0.00%     83.58% # Class of committed instruction
system.cpu.commit.committedInstType_0::SimdSha256Hash2            0      0.00%     83.58% # Class of committed instruction
system.cpu.commit.committedInstType_0::SimdShaSigma2            0      0.00%     83.58% # Class of committed instruction
system.cpu.commit.committedInstType_0::SimdShaSigma3            0      0.00%     83.58% # Class of committed instruction
system.cpu.commit.committedInstType_0::SimdPredAlu            0      0.00%     83.58% # Class of committed instruction
system.cpu.commit.committedInstType_0::MemRead       765263     10.87%     94.45% # Class of committed instruction
system.cpu.commit.committedInstType_0::MemWrite       343623      4.88%     99.33% # Class of committed instruction
system.cpu.commit.committedInstType_0::FloatMemRead        27758      0.39%     99.72% # Class of committed instruction
system.cpu.commit.committedInstType_0::FloatMemWrite        19597      0.28%    100.00% # Class of committed instruction
system.cpu.commit.committedInstType_0::IprAccess            0      0.00%    100.00% # Class of committed instruction
system.cpu.commit.committedInstType_0::InstPrefetch            0      0.00%    100.00% # Class of committed instruction
system.cpu.commit.committedInstType_0::total      7039837                       # Class of committed instruction
system.cpu.commit.commitEligibleSamples        400548                       # number cycles where commit BW limit reached
system.cpu.thread0.numInsts                   3827110                       # Number of Instructions committed
system.cpu.thread0.numOps                     7039837                       # Number of Ops committed
system.cpu.thread0.numMemRefs                       0                       # Number of Memory References
system.cpu.fetch.icacheStallCycles            1056101                       # Number of cycles fetch is stalled on an Icache miss
system.cpu.fetch.insts                        6649614                       # Number of instructions fetch has processed
system.cpu.fetch.branches                     1376707                       # Number of branches that fetch encountered
system.cpu.fetch.predictedBranches             790827                       # Number of branches that fetch has predicted taken
system.cpu.fetch.cycles                       2707437                       # Number of cycles fetch has run and was not squashing or blocked
system.cpu.fetch.squashCycles                  168072                       # Number of cycles fetch has spent squashing
system.cpu.fetch.miscStallCycles                  322                       # Number of cycles fetch has spent waiting on interrupts,or bad addresses, or out of MSHRs
system.cpu.fetch.pendingTrapStallCycles          2128                       # Number of stall cycles due to pending traps
system.cpu.fetch.pendingQuiesceStallCycles            2                       # Number of stall cycles due to pending quiesce instructions
system.cpu.fetch.icacheWaitRetryStallCycles           68                       # Number of stall cycles due to full MSHR
system.cpu.fetch.cacheLines                    917161                       # Number of cache lines fetched
system.cpu.fetch.icacheSquashes                 29506                       # Number of outstanding Icache misses that were squashed
system.cpu.fetch.nisnDist::samples            3850094                       # Number of instructions fetched each cycle (Total)
system.cpu.fetch.nisnDist::mean              3.076088                       # Number of instructions fetched each cycle (Total)
system.cpu.fetch.nisnDist::stdev             3.465410                       # Number of instructions fetched each cycle (Total)
system.cpu.fetch.nisnDist::underflows               0      0.00%      0.00% # Number of instructions fetched each cycle (Total)
system.cpu.fetch.nisnDist::0                  1903521     49.44%     49.44% # Number of instructions fetched each cycle (Total)
system.cpu.fetch.nisnDist::1                    84811      2.20%     51.64% # Number of instructions fetched each cycle (Total)
system.cpu.fetch.nisnDist::2                   150176      3.90%     55.54% # Number of instructions fetched each cycle (Total)
system.cpu.fetch.nisnDist::3                   165647      4.30%     59.85% # Number of instructions fetched each cycle (Total)
system.cpu.fetch.nisnDist::4                   121787      3.16%     63.01% # Number of instructions fetched each cycle (Total)
system.cpu.fetch.nisnDist::5                   151497      3.93%     66.94% # Number of instructions fetched each cycle (Total)
system.cpu.fetch.nisnDist::6                   137898      3.58%     70.53% # Number of instructions fetched each cycle (Total)
system.cpu.fetch.nisnDist::7                   188953      4.91%     75.43% # Number of instructions fetched each cycle (Total)
system.cpu.fetch.nisnDist::8                   945804     24.57%    100.00% # Number of instructions fetched each cycle (Total)
system.cpu.fetch.nisnDist::overflows                0      0.00%    100.00% # Number of instructions fetched each cycle (Total)
system.cpu.fetch.nisnDist::min_value                0                       # Number of instructions fetched each cycle (Total)
system.cpu.fetch.nisnDist::max_value                8                       # Number of instructions fetched each cycle (Total)
system.cpu.fetch.nisnDist::total              3850094                       # Number of instructions fetched each cycle (Total)
system.cpu.fetch.branchRate                  0.346133                       # Number of branch fetches per cycle
system.cpu.fetch.rate                        1.671854                       # Number of inst fetches per cycle

---------- End Simulation Statistics   ----------
