
---------- Begin Simulation Statistics ----------
final_tick                                 2008328500                       # Number of ticks from beginning of simulation (restored from checkpoints and never reset)
host_inst_rate                                 133188                       # Simulator instruction rate (inst/s)
host_mem_usage                                 726116                       # Number of bytes of host memory used
host_op_rate                                   244994                       # Simulator op (including micro ops) rate (op/s)
host_seconds                                    28.73                       # Real time elapsed on the host
host_tick_rate                               69893076                       # Simulator tick rate (ticks/s)
sim_freq                                 1000000000000                       # Frequency of simulated ticks
sim_insts                                     3827045                       # Number of instructions simulated
sim_ops                                       7039733                       # Number of ops (including micro ops) simulated
sim_seconds                                  0.002008                       # Number of seconds simulated
sim_ticks                                  2008328500                       # Number of ticks simulated
system.cpu.cc_regfile_reads                   5086020                       # number of cc regfile reads
system.cpu.cc_regfile_writes                  3573526                       # number of cc regfile writes
system.cpu.committedInsts                     3827045                       # Number of Instructions Simulated
system.cpu.committedOps                       7039733                       # Number of Ops (including micro ops) Simulated
system.cpu.cpi                               1.049546                       # CPI: Cycles Per Instruction
system.cpu.cpi_total                         1.049546                       # CPI: Total CPI of All Threads
system.cpu.fp_regfile_reads                    215364                       # number of floating regfile reads
system.cpu.fp_regfile_writes                   142630                       # number of floating regfile writes
system.cpu.idleCycles                          133464                       # Total number of cycles that the CPU has spent unscheduled due to idling
system.cpu.iew.branchMispredicts                83488                       # Number of branch mispredicts detected at execute
system.cpu.iew.exec_branches                   978987                       # Number of branches executed
system.cpu.iew.exec_nop                             0                       # number of nop insts executed
system.cpu.iew.exec_rate                     2.282075                       # Inst execution rate
system.cpu.iew.exec_refs                      1560710                       # number of memory reference insts executed
system.cpu.iew.exec_stores                     483572                       # Number of stores executed
system.cpu.iew.exec_swp                             0                       # number of swp insts executed
system.cpu.iew.iewBlockCycles                  378777                       # Number of cycles IEW is blocking
system.cpu.iew.iewDispLoadInsts               1215806                       # Number of dispatched load instructions
system.cpu.iew.iewDispNonSpecInsts                232                       # Number of dispatched non-speculative instructions
system.cpu.iew.iewDispSquashedInsts              8367                       # Number of squashed instructions skipped by dispatch
system.cpu.iew.iewDispStoreInsts               618049                       # Number of dispatched store instructions
system.cpu.iew.iewDispatchedInsts            10324047                       # Number of instructions dispatched to IQ
system.cpu.iew.iewExecLoadInsts               1077138                       # Number of load instructions executed
system.cpu.iew.iewExecSquashedInsts            171482                       # Number of squashed instructions skipped in execute
system.cpu.iew.iewExecutedInsts               9166314                       # Number of executed instructions
system.cpu.iew.iewIQFullEvents                   4360                       # Number of times the IQ has become full, causing a stall
system.cpu.iew.iewIdleCycles                        0                       # Number of cycles IEW is idle
system.cpu.iew.iewLSQFullEvents                 96828                       # Number of times the LSQ has become full, causing a stall
system.cpu.iew.iewSquashCycles                  79860                       # Number of cycles IEW is squashing
system.cpu.iew.iewUnblockCycles                102462                       # Number of cycles IEW is unblocking
system.cpu.iew.memOrderViolationEvents            343                       # Number of memory order violations
system.cpu.iew.predictedNotTakenIncorrect        46431                       # Number of branches that were predicted not taken incorrectly
system.cpu.iew.predictedTakenIncorrect          37057                       # Number of branches that were predicted taken incorrectly
system.cpu.iew.wb_consumers                  12914365                       # num instructions consuming a value
system.cpu.iew.wb_count                       9056675                       # cumulative count of insts written-back
system.cpu.iew.wb_fanout                     0.532256                       # average fanout of values written-back
system.cpu.iew.wb_producers                   6873742                       # num instructions producing a value
system.cpu.iew.wb_rate                       2.254779                       # insts written-back per cycle
system.cpu.iew.wb_sent                        9114890                       # cumulative count of insts sent to commit
system.cpu.int_regfile_reads                 15156414                       # number of integer regfile reads
system.cpu.int_regfile_writes                 8733249                       # number of integer regfile writes
system.cpu.ipc                               0.952793                       # IPC: Instructions Per Cycle
system.cpu.ipc_total                         0.952793                       # IPC: Total IPC of All Threads
system.cpu.iq.FU_type_0::No_OpClass            181738      1.95%      1.95% # Type of FU issued
system.cpu.iq.FU_type_0::IntAlu               6843219     73.29%     75.23% # Type of FU issued
system.cpu.iq.FU_type_0::IntMult                20580      0.22%     75.45% # Type of FU issued
system.cpu.iq.FU_type_0::IntDiv                631992      6.77%     82.22% # Type of FU issued
system.cpu.iq.FU_type_0::FloatAdd                1297      0.01%     82.23% # Type of FU issued
system.cpu.iq.FU_type_0::FloatCmp                   0      0.00%     82.23% # Type of FU issued
system.cpu.iq.FU_type_0::FloatCvt                   0      0.00%     82.23% # Type of FU issued
system.cpu.iq.FU_type_0::FloatMult                  0      0.00%     82.23% # Type of FU issued
system.cpu.iq.FU_type_0::FloatMultAcc               0      0.00%     82.23% # Type of FU issued
system.cpu.iq.FU_type_0::FloatDiv                   0      0.00%     82.23% # Type of FU issued
system.cpu.iq.FU_type_0::FloatMisc                  0      0.00%     82.23% # Type of FU issued
system.cpu.iq.FU_type_0::FloatSqrt                  0      0.00%     82.23% # Type of FU issued
system.cpu.iq.FU_type_0::SimdAdd                 2446      0.03%     82.26% # Type of FU issued
system.cpu.iq.FU_type_0::SimdAddAcc                 0      0.00%     82.26% # Type of FU issued
system.cpu.iq.FU_type_0::SimdAlu                31270      0.33%     82.59% # Type of FU issued
system.cpu.iq.FU_type_0::SimdCmp                    0      0.00%     82.59% # Type of FU issued
system.cpu.iq.FU_type_0::SimdCvt                12004      0.13%     82.72% # Type of FU issued
system.cpu.iq.FU_type_0::SimdMisc                8652      0.09%     82.82% # Type of FU issued
system.cpu.iq.FU_type_0::SimdMult                   0      0.00%     82.82% # Type of FU issued
system.cpu.iq.FU_type_0::SimdMultAcc                0      0.00%     82.82% # Type of FU issued
system.cpu.iq.FU_type_0::SimdShift               1232      0.01%     82.83% # Type of FU issued
system.cpu.iq.FU_type_0::SimdShiftAcc               0      0.00%     82.83% # Type of FU issued
system.cpu.iq.FU_type_0::SimdDiv                    0      0.00%     82.83% # Type of FU issued
system.cpu.iq.FU_type_0::SimdSqrt                   0      0.00%     82.83% # Type of FU issued
system.cpu.iq.FU_type_0::SimdFloatAdd              16      0.00%     82.83% # Type of FU issued
system.cpu.iq.FU_type_0::SimdFloatAlu               0      0.00%     82.83% # Type of FU issued
system.cpu.iq.FU_type_0::SimdFloatCmp               0      0.00%     82.83% # Type of FU issued
system.cpu.iq.FU_type_0::SimdFloatCvt             527      0.01%     82.84% # Type of FU issued
system.cpu.iq.FU_type_0::SimdFloatDiv             204      0.00%     82.84% # Type of FU issued
system.cpu.iq.FU_type_0::SimdFloatMisc              0      0.00%     82.84% # Type of FU issued
system.cpu.iq.FU_type_0::SimdFloatMult              0      0.00%     82.84% # Type of FU issued
system.cpu.iq.FU_type_0::SimdFloatMultAcc            0      0.00%     82.84% # Type of FU issued
system.cpu.iq.FU_type_0::SimdFloatSqrt              0      0.00%     82.84% # Type of FU issued
system.cpu.iq.FU_type_0::SimdReduceAdd              0      0.00%     82.84% # Type of FU issued
system.cpu.iq.FU_type_0::SimdReduceAlu              0      0.00%     82.84% # Type of FU issued
system.cpu.iq.FU_type_0::SimdReduceCmp              0      0.00%     82.84% # Type of FU issued
system.cpu.iq.FU_type_0::SimdFloatReduceAdd            0      0.00%     82.84% # Type of FU issued
system.cpu.iq.FU_type_0::SimdFloatReduceCmp            0      0.00%     82.84% # Type of FU issued
system.cpu.iq.FU_type_0::SimdAes                    0      0.00%     82.84% # Type of FU issued
system.cpu.iq.FU_type_0::SimdAesMix                 0      0.00%     82.84% # Type of FU issued
system.cpu.iq.FU_type_0::SimdSha1Hash               0      0.00%     82.84% # Type of FU issued
system.cpu.iq.FU_type_0::SimdSha1Hash2              0      0.00%     82.84% # Type of FU issued
system.cpu.iq.FU_type_0::SimdSha256Hash             0      0.00%     82.84% # Type of FU issued
system.cpu.iq.FU_type_0::SimdSha256Hash2            0      0.00%     82.84% # Type of FU issued
system.cpu.iq.FU_type_0::SimdShaSigma2              0      0.00%     82.84% # Type of FU issued
system.cpu.iq.FU_type_0::SimdShaSigma3              0      0.00%     82.84% # Type of FU issued
system.cpu.iq.FU_type_0::SimdPredAlu                0      0.00%     82.84% # Type of FU issued
system.cpu.iq.FU_type_0::MemRead              1026432     10.99%     93.83% # Type of FU issued
system.cpu.iq.FU_type_0::MemWrite              447147      4.79%     98.62% # Type of FU issued
system.cpu.iq.FU_type_0::FloatMemRead           76871      0.82%     99.44% # Type of FU issued
system.cpu.iq.FU_type_0::FloatMemWrite          52169      0.56%    100.00% # Type of FU issued
system.cpu.iq.FU_type_0::IprAccess                  0      0.00%    100.00% # Type of FU issued
system.cpu.iq.FU_type_0::InstPrefetch               0      0.00%    100.00% # Type of FU issued
system.cpu.iq.FU_type_0::total                9337796                       # Type of FU issued
system.cpu.iq.fp_alu_accesses                  225696                       # Number of floating point alu accesses
system.cpu.iq.fp_inst_queue_reads              433694                       # Number of floating instruction queue reads
system.cpu.iq.fp_inst_queue_wakeup_accesses       194278                       # Number of floating instruction queue wakeup accesses
system.cpu.iq.fp_inst_queue_writes             352270                       # Number of floating instruction queue writes
system.cpu.iq.fu_busy_cnt                      139618                       # FU busy when requested
system.cpu.iq.fu_busy_rate                   0.014952                       # FU busy rate (busy events/executed inst)
system.cpu.iq.fu_full::No_OpClass                   0      0.00%      0.00% # attempts to use FU when none available
system.cpu.iq.fu_full::IntAlu                  112072     80.27%     80.27% # attempts to use FU when none available
system.cpu.iq.fu_full::IntMult                      0      0.00%     80.27% # attempts to use FU when none available
system.cpu.iq.fu_full::IntDiv                       0      0.00%     80.27% # attempts to use FU when none available
system.cpu.iq.fu_full::FloatAdd                     0      0.00%     80.27% # attempts to use FU when none available
system.cpu.iq.fu_full::FloatCmp                     0      0.00%     80.27% # attempts to use FU when none available
system.cpu.iq.fu_full::FloatCvt                     0      0.00%     80.27% # attempts to use FU when none available
system.cpu.iq.fu_full::FloatMult                    0      0.00%     80.27% # attempts to use FU when none available
system.cpu.iq.fu_full::FloatMultAcc                 0      0.00%     80.27% # attempts to use FU when none available
system.cpu.iq.fu_full::FloatDiv                     0      0.00%     80.27% # attempts to use FU when none available
system.cpu.iq.fu_full::FloatMisc                    0      0.00%     80.27% # attempts to use FU when none available
system.cpu.iq.fu_full::FloatSqrt                    0      0.00%     80.27% # attempts to use FU when none available
system.cpu.iq.fu_full::SimdAdd                      0      0.00%     80.27% # attempts to use FU when none available
system.cpu.iq.fu_full::SimdAddAcc                   0      0.00%     80.27% # attempts to use FU when none available
system.cpu.iq.fu_full::SimdAlu                    437      0.31%     80.58% # attempts to use FU when none available
system.cpu.iq.fu_full::SimdCmp                      0      0.00%     80.58% # attempts to use FU when none available
system.cpu.iq.fu_full::SimdCvt                     48      0.03%     80.62% # attempts to use FU when none available
system.cpu.iq.fu_full::SimdMisc                    78      0.06%     80.67% # attempts to use FU when none available
system.cpu.iq.fu_full::SimdMult                     0      0.00%     80.67% # attempts to use FU when none available
system.cpu.iq.fu_full::SimdMultAcc                  0      0.00%     80.67% # attempts to use FU when none available
system.cpu.iq.fu_full::SimdShift                    0      0.00%     80.67% # attempts to use FU when none available
system.cpu.iq.fu_full::SimdShiftAcc                 0      0.00%     80.67% # attempts to use FU when none available
system.cpu.iq.fu_full::SimdDiv                      0      0.00%     80.67% # attempts to use FU when none available
system.cpu.iq.fu_full::SimdSqrt                     0      0.00%     80.67% # attempts to use FU when none available
system.cpu.iq.fu_full::SimdFloatAdd                 0      0.00%     80.67% # attempts to use FU when none available
system.cpu.iq.fu_full::SimdFloatAlu                 0      0.00%     80.67% # attempts to use FU when none available
system.cpu.iq.fu_full::SimdFloatCmp                 0      0.00%     80.67% # attempts to use FU when none available
system.cpu.iq.fu_full::SimdFloatCvt                 0      0.00%     80.67% # attempts to use FU when none available
system.cpu.iq.fu_full::SimdFloatDiv                 0      0.00%     80.67% # attempts to use FU when none available
system.cpu.iq.fu_full::SimdFloatMisc                0      0.00%     80.67% # attempts to use FU when none available
system.cpu.iq.fu_full::SimdFloatMult                0      0.00%     80.67% # attempts to use FU when none available
system.cpu.iq.fu_full::SimdFloatMultAcc             0      0.00%     80.67% # attempts to use FU when none available
system.cpu.iq.fu_full::SimdFloatSqrt                0      0.00%     80.67% # attempts to use FU when none available
system.cpu.iq.fu_full::SimdReduceAdd                0      0.00%     80.67% # attempts to use FU when none available
system.cpu.iq.fu_full::SimdReduceAlu                0      0.00%     80.67% # attempts to use FU when none available
system.cpu.iq.fu_full::SimdReduceCmp                0      0.00%     80.67% # attempts to use FU when none available
system.cpu.iq.fu_full::SimdFloatReduceAdd            0      0.00%     80.67% # attempts to use FU when none available
system.cpu.iq.fu_full::SimdFloatReduceCmp            0      0.00%     80.67% # attempts to use FU when none available
system.cpu.iq.fu_full::SimdAes                      0      0.00%     80.67% # attempts to use FU when none available
system.cpu.iq.fu_full::SimdAesMix                   0      0.00%     80.67% # attempts to use FU when none available
system.cpu.iq.fu_full::SimdSha1Hash                 0      0.00%     80.67% # attempts to use FU when none available
system.cpu.iq.fu_full::SimdSha1Hash2                0      0.00%     80.67% # attempts to use FU when none available
system.cpu.iq.fu_full::SimdSha256Hash               0      0.00%     80.67% # attempts to use FU when none available
system.cpu.iq.fu_full::SimdSha256Hash2              0      0.00%     80.67% # attempts to use FU when none available
system.cpu.iq.fu_full::SimdShaSigma2                0      0.00%     80.67% # attempts to use FU when none available
system.cpu.iq.fu_full::SimdShaSigma3                0      0.00%     80.67% # attempts to use FU when none available
system.cpu.iq.fu_full::SimdPredAlu                  0      0.00%     80.67% # attempts to use FU when none available
system.cpu.iq.fu_full::MemRead                   3568      2.56%     83.23% # attempts to use FU when none available
system.cpu.iq.fu_full::MemWrite                  4948      3.54%     86.77% # attempts to use FU when none available
system.cpu.iq.fu_full::FloatMemRead             12714      9.11%     95.88% # attempts to use FU when none available
system.cpu.iq.fu_full::FloatMemWrite             5753      4.12%    100.00% # attempts to use FU when none available
system.cpu.iq.fu_full::IprAccess                    0      0.00%    100.00% # attempts to use FU when none available
system.cpu.iq.fu_full::InstPrefetch                 0      0.00%    100.00% # attempts to use FU when none available
system.cpu.iq.int_alu_accesses                9069980                       # Number of integer alu accesses
system.cpu.iq.int_inst_queue_reads           22282779                       # Number of integer instruction queue reads
system.cpu.iq.int_inst_queue_wakeup_accesses      8862397                       # Number of integer instruction queue wakeup accesses
system.cpu.iq.int_inst_queue_writes          13256386                       # Number of integer instruction queue writes
system.cpu.iq.iqInstsAdded                   10321372                       # Number of instructions added to the IQ (excludes non-spec)
system.cpu.iq.iqInstsIssued                   9337796                       # Number of instructions issued
system.cpu.iq.iqNonSpecInstsAdded                2675                       # Number of non-speculative instructions added to the IQ
system.cpu.iq.iqSquashedInstsExamined         3284308                       # Number of squashed instructions iterated over during squash; mainly for profiling
system.cpu.iq.iqSquashedInstsIssued             18069                       # Number of squashed instructions issued
system.cpu.iq.iqSquashedNonSpecRemoved           2460                       # Number of squashed non-spec instructions that were removed
system.cpu.iq.iqSquashedOperandsExamined      4185895                       # Number of squashed operands that are examined and possibly removed from graph
system.cpu.iq.issued_per_cycle::samples       3883194                       # Number of insts issued each cycle
system.cpu.iq.issued_per_cycle::mean         2.404669                       # Number of insts issued each cycle
system.cpu.iq.issued_per_cycle::stdev        2.372095                       # Number of insts issued each cycle
system.cpu.iq.issued_per_cycle::underflows            0      0.00%      0.00% # Number of insts issued each cycle
system.cpu.iq.issued_per_cycle::0             1392739     35.87%     35.87% # Number of insts issued each cycle
system.cpu.iq.issued_per_cycle::1              320777      8.26%     44.13% # Number of insts issued each cycle
system.cpu.iq.issued_per_cycle::2              466623     12.02%     56.14% # Number of insts issued each cycle
system.cpu.iq.issued_per_cycle::3              448814     11.56%     67.70% # Number of insts issued each cycle
system.cpu.iq.issued_per_cycle::4              401612     10.34%     78.04% # Number of insts issued each cycle
system.cpu.iq.issued_per_cycle::5              309054      7.96%     86.00% # Number of insts issued each cycle
system.cpu.iq.issued_per_cycle::6              290835      7.49%     93.49% # Number of insts issued each cycle
system.cpu.iq.issued_per_cycle::7              181317      4.67%     98.16% # Number of insts issued each cycle
system.cpu.iq.issued_per_cycle::8               71423      1.84%    100.00% # Number of insts issued each cycle
system.cpu.iq.issued_per_cycle::overflows            0      0.00%    100.00% # Number of insts issued each cycle
system.cpu.iq.issued_per_cycle::min_value            0                       # Number of insts issued each cycle
system.cpu.iq.issued_per_cycle::max_value            8                       # Number of insts issued each cycle
system.cpu.iq.issued_per_cycle::total         3883194                       # Number of insts issued each cycle
system.cpu.iq.rate                           2.324768                       # Inst issue rate
system.cpu.iq.vec_alu_accesses                      0                       # Number of vector alu accesses
system.cpu.iq.vec_inst_queue_reads                  0                       # Number of vector instruction queue reads
system.cpu.iq.vec_inst_queue_wakeup_accesses            0                       # Number of vector instruction queue wakeup accesses
system.cpu.iq.vec_inst_queue_writes                 0                       # Number of vector instruction queue writes
system.cpu.memDep0.conflictingLoads            223288                       # Number of conflicting loads.
system.cpu.memDep0.conflictingStores           154374                       # Number of conflicting stores.
system.cpu.memDep0.insertedLoads              1215806                       # Number of loads inserted to the mem dependence unit.
system.cpu.memDep0.insertedStores              618049                       # Number of stores inserted to the mem dependence unit.
system.cpu.misc_regfile_reads                 3395468                       # number of misc regfile reads
system.cpu.numCycles                          4016658                       # number of cpu cycles simulated
system.cpu.numWorkItemsCompleted                    0                       # number of work items this cpu completed
system.cpu.numWorkItemsStarted                      0                       # number of work items this cpu started
system.cpu.timesIdled                            2326                       # Number of times that the entire CPU went into an idle state and unscheduled itself
system.cpu.workload.numSyscalls                   419                       # Number of system calls
system.membus.snoop_filter.hit_multi_requests            0                       # Number of requests hitting in the snoop filter with multiple (>1) holders of the requested data.
system.membus.snoop_filter.hit_multi_snoops            0                       # Number of snoops hitting in the snoop filter with multiple (>1) holders of the requested data.
system.membus.snoop_filter.hit_single_requests          223                       # Number of requests hitting in the snoop filter with a single holder of the requested data.
system.membus.snoop_filter.hit_single_snoops            0                       # Number of snoops hitting in the snoop filter with a single holder of the requested data.
system.membus.snoop_filter.tot_requests          5086                       # Total number of requests made to the snoop filter.
system.membus.snoop_filter.tot_snoops               0                       # Total number of snoops made to the snoop filter.
system.tol2bus.snoop_filter.hit_multi_requests            5                       # Number of requests hitting in the snoop filter with multiple (>1) holders of the requested data.
system.tol2bus.snoop_filter.hit_multi_snoops            0                       # Number of snoops hitting in the snoop filter with multiple (>1) holders of the requested data.
system.tol2bus.snoop_filter.hit_single_requests        28749                       # Number of requests hitting in the snoop filter with a single holder of the requested data.
system.tol2bus.snoop_filter.hit_single_snoops          124                       # Number of snoops hitting in the snoop filter with a single holder of the requested data.
system.tol2bus.snoop_filter.tot_requests        58523                       # Total number of requests made to the snoop filter.
system.tol2bus.snoop_filter.tot_snoops            124                       # Total number of snoops made to the snoop filter.
system.membus.trans_dist::ReadResp               2052                       # Transaction distribution
system.membus.trans_dist::WritebackDirty           36                       # Transaction distribution
system.membus.trans_dist::CleanEvict              187                       # Transaction distribution
system.membus.trans_dist::ReadExReq              2811                       # Transaction distribution
system.membus.trans_dist::ReadExResp             2811                       # Transaction distribution
system.membus.trans_dist::ReadSharedReq          2052                       # Transaction distribution
system.membus.pkt_count_system.l2.mem_side_port::system.mem_ctrls.port         9949                       # Packet count per connected requestor and responder (bytes)
system.membus.pkt_count_system.l2.mem_side_port::total         9949                       # Packet count per connected requestor and responder (bytes)
system.membus.pkt_count::total                   9949                       # Packet count per connected requestor and responder (bytes)
system.membus.pkt_size_system.l2.mem_side_port::system.mem_ctrls.port       313536                       # Cumulative packet size per connected requestor and responder (bytes)
system.membus.pkt_size_system.l2.mem_side_port::total       313536                       # Cumulative packet size per connected requestor and responder (bytes)
system.membus.pkt_size::total                  313536                       # Cumulative packet size per connected requestor and responder (bytes)
system.membus.snoops                                0                       # Total snoops (count)
system.membus.snoopTraffic                          0                       # Total snoop traffic (bytes)
system.membus.snoop_fanout::samples              4863                       # Request fanout histogram
system.membus.snoop_fanout::mean                    0                       # Request fanout histogram
system.membus.snoop_fanout::stdev                   0                       # Request fanout histogram
system.membus.snoop_fanout::underflows              0      0.00%      0.00% # Request fanout histogram
system.membus.snoop_fanout::0                    4863    100.00%    100.00% # Request fanout histogram
system.membus.snoop_fanout::1                       0      0.00%    100.00% # Request fanout histogram
system.membus.snoop_fanout::overflows               0      0.00%    100.00% # Request fanout histogram
system.membus.snoop_fanout::min_value               0                       # Request fanout histogram
system.membus.snoop_fanout::max_value               0                       # Request fanout histogram
system.membus.snoop_fanout::total                4863                       # Request fanout histogram
system.membus.reqLayer2.occupancy             6251500                       # Layer occupancy (ticks)
system.membus.reqLayer2.utilization               0.3                       # Layer utilization (%)
system.membus.respLayer1.occupancy           25757500                       # Layer occupancy (ticks)
system.membus.respLayer1.utilization              1.3                       # Layer utilization (%)
system.membus.power_state.pwrStateResidencyTicks::UNDEFINED   2008328500                       # Cumulative time (in ticks) in various power states
system.tol2bus.trans_dist::ReadResp             20380                       # Transaction distribution
system.tol2bus.trans_dist::WritebackDirty        22545                       # Transaction distribution
system.tol2bus.trans_dist::WritebackClean         5551                       # Transaction distribution
system.tol2bus.trans_dist::CleanEvict             993                       # Transaction distribution
system.tol2bus.trans_dist::ReadExReq             9393                       # Transaction distribution
system.tol2bus.trans_dist::ReadExResp            9393                       # Transaction distribution
system.tol2bus.trans_dist::ReadCleanReq          6064                       # Transaction distribution
system.tol2bus.trans_dist::ReadSharedReq        14317                       # Transaction distribution
system.tol2bus.pkt_count_system.cpu.icache.mem_side_port::system.l2.cpu_side_port        17678                       # Packet count per connected requestor and responder (bytes)
system.tol2bus.pkt_count_system.cpu.dcache.mem_side_port::system.l2.cpu_side_port        70618                       # Packet count per connected requestor and responder (bytes)
system.tol2bus.pkt_count::total                 88296                       # Packet count per connected requestor and responder (bytes)
system.tol2bus.pkt_size_system.cpu.icache.mem_side_port::system.l2.cpu_side_port       743296                       # Cumulative packet size per connected requestor and responder (bytes)
system.tol2bus.pkt_size_system.cpu.dcache.mem_side_port::system.l2.cpu_side_port      2958016                       # Cumulative packet size per connected requestor and responder (bytes)
system.tol2bus.pkt_size::total                3701312                       # Cumulative packet size per connected requestor and responder (bytes)
system.tol2bus.snoops                             340                       # Total snoops (count)
system.tol2bus.snoopTraffic                      2304                       # Total snoop traffic (bytes)
system.tol2bus.snoop_fanout::samples            30114                       # Request fanout histogram
system.tol2bus.snoop_fanout::mean            0.004284                       # Request fanout histogram
system.tol2bus.snoop_fanout::stdev           0.065311                       # Request fanout histogram
system.tol2bus.snoop_fanout::underflows             0      0.00%      0.00% # Request fanout histogram
system.tol2bus.snoop_fanout::0                  29985     99.57%     99.57% # Request fanout histogram
system.tol2bus.snoop_fanout::1                    129      0.43%    100.00% # Request fanout histogram
system.tol2bus.snoop_fanout::2                      0      0.00%    100.00% # Request fanout histogram
system.tol2bus.snoop_fanout::3                      0      0.00%    100.00% # Request fanout histogram
system.tol2bus.snoop_fanout::4                      0      0.00%    100.00% # Request fanout histogram
system.tol2bus.snoop_fanout::overflows              0      0.00%    100.00% # Request fanout histogram
system.tol2bus.snoop_fanout::min_value              0                       # Request fanout histogram
system.tol2bus.snoop_fanout::max_value              1                       # Request fanout histogram
system.tol2bus.snoop_fanout::total              30114                       # Request fanout histogram
system.tol2bus.reqLayer0.occupancy           57321500                       # Layer occupancy (ticks)
system.tol2bus.reqLayer0.utilization              2.9                       # Layer utilization (%)
system.tol2bus.respLayer1.occupancy          35565998                       # Layer occupancy (ticks)
system.tol2bus.respLayer1.utilization             1.8                       # Layer utilization (%)
system.tol2bus.respLayer0.occupancy           9094999                       # Layer occupancy (ticks)
system.tol2bus.respLayer0.utilization             0.5                       # Layer utilization (%)
system.tol2bus.power_state.pwrStateResidencyTicks::UNDEFINED   2008328500                       # Cumulative time (in ticks) in various power states
system.voltage_domain.voltage                       1                       # Voltage in Volts
system.clk_domain.clock                          1000                       # Clock period in ticks
system.l2.demand_hits::.cpu.inst                 4282                       # number of demand (read+write) hits
system.l2.demand_hits::.cpu.data                20627                       # number of demand (read+write) hits
system.l2.demand_hits::total                    24909                       # number of demand (read+write) hits
system.l2.overall_hits::.cpu.inst                4282                       # number of overall hits
system.l2.overall_hits::.cpu.data               20627                       # number of overall hits
system.l2.overall_hits::total                   24909                       # number of overall hits
system.l2.demand_misses::.cpu.inst               1782                       # number of demand (read+write) misses
system.l2.demand_misses::.cpu.data               3083                       # number of demand (read+write) misses
system.l2.demand_misses::total                   4865                       # number of demand (read+write) misses
system.l2.overall_misses::.cpu.inst              1782                       # number of overall misses
system.l2.overall_misses::.cpu.data              3083                       # number of overall misses
system.l2.overall_misses::total                  4865                       # number of overall misses
system.l2.demand_miss_latency::.cpu.inst    141035500                       # number of demand (read+write) miss cycles
system.l2.demand_miss_latency::.cpu.data    234876000                       # number of demand (read+write) miss cycles
system.l2.demand_miss_latency::total        375911500                       # number of demand (read+write) miss cycles
system.l2.overall_miss_latency::.cpu.inst    141035500                       # number of overall miss cycles
system.l2.overall_miss_latency::.cpu.data    234876000                       # number of overall miss cycles
system.l2.overall_miss_latency::total       375911500                       # number of overall miss cycles
system.l2.demand_accesses::.cpu.inst             6064                       # number of demand (read+write) accesses
system.l2.demand_accesses::.cpu.data            23710                       # number of demand (read+write) accesses
system.l2.demand_accesses::total                29774                       # number of demand (read+write) accesses
system.l2.overall_accesses::.cpu.inst            6064                       # number of overall (read+write) accesses
system.l2.overall_accesses::.cpu.data           23710                       # number of overall (read+write) accesses
system.l2.overall_accesses::total               29774                       # number of overall (read+write) accesses
system.l2.demand_miss_rate::.cpu.inst        0.293865                       # miss rate for demand accesses
system.l2.demand_miss_rate::.cpu.data        0.130030                       # miss rate for demand accesses
system.l2.demand_miss_rate::total            0.163398                       # miss rate for demand accesses
system.l2.overall_miss_rate::.cpu.inst       0.293865                       # miss rate for overall accesses
system.l2.overall_miss_rate::.cpu.data       0.130030                       # miss rate for overall accesses
system.l2.overall_miss_rate::total           0.163398                       # miss rate for overall accesses
system.l2.demand_avg_miss_latency::.cpu.inst 79144.500561                       # average overall miss latency
system.l2.demand_avg_miss_latency::.cpu.data 76184.236134                       # average overall miss latency
system.l2.demand_avg_miss_latency::total 77268.550874                       # average overall miss latency
system.l2.overall_avg_miss_latency::.cpu.inst 79144.500561                       # average overall miss latency
system.l2.overall_avg_miss_latency::.cpu.data 76184.236134                       # average overall miss latency
system.l2.overall_avg_miss_latency::total 77268.550874                       # average overall miss latency
system.l2.blocked_cycles::no_mshrs                  0                       # number of cycles access was blocked
system.l2.blocked_cycles::no_targets                0                       # number of cycles access was blocked
system.l2.blocked::no_mshrs                         0                       # number of cycles access was blocked
system.l2.blocked::no_targets                       0                       # number of cycles access was blocked
system.l2.avg_blocked_cycles::no_mshrs            nan                       # average number of cycles each access was blocked
system.l2.avg_blocked_cycles::no_targets          nan                       # average number of cycles each access was blocked
system.l2.writebacks::.writebacks                  36                       # number of writebacks
system.l2.writebacks::total                        36                       # number of writebacks
system.l2.demand_mshr_hits::.cpu.data               1                       # number of demand (read+write) MSHR hits
system.l2.demand_mshr_hits::total                   1                       # number of demand (read+write) MSHR hits
system.l2.overall_mshr_hits::.cpu.data              1                       # number of overall MSHR hits
system.l2.overall_mshr_hits::total                  1                       # number of overall MSHR hits
system.l2.demand_mshr_misses::.cpu.inst          1782                       # number of demand (read+write) MSHR misses
system.l2.demand_mshr_misses::.cpu.data          3082                       # number of demand (read+write) MSHR misses
system.l2.demand_mshr_misses::total              4864                       # number of demand (read+write) MSHR misses
system.l2.overall_mshr_misses::.cpu.inst         1782                       # number of overall MSHR misses
system.l2.overall_mshr_misses::.cpu.data         3082                       # number of overall MSHR misses
system.l2.overall_mshr_misses::total             4864                       # number of overall MSHR misses
system.l2.demand_mshr_miss_latency::.cpu.inst    123225500                       # number of demand (read+write) MSHR miss cycles
system.l2.demand_mshr_miss_latency::.cpu.data    203961500                       # number of demand (read+write) MSHR miss cycles
system.l2.demand_mshr_miss_latency::total    327187000                       # number of demand (read+write) MSHR miss cycles
system.l2.overall_mshr_miss_latency::.cpu.inst    123225500                       # number of overall MSHR miss cycles
system.l2.overall_mshr_miss_latency::.cpu.data    203961500                       # number of overall MSHR miss cycles
system.l2.overall_mshr_miss_latency::total    327187000                       # number of overall MSHR miss cycles
system.l2.demand_mshr_miss_rate::.cpu.inst     0.293865                       # mshr miss rate for demand accesses
system.l2.demand_mshr_miss_rate::.cpu.data     0.129987                       # mshr miss rate for demand accesses
system.l2.demand_mshr_miss_rate::total       0.163364                       # mshr miss rate for demand accesses
system.l2.overall_mshr_miss_rate::.cpu.inst     0.293865                       # mshr miss rate for overall accesses
system.l2.overall_mshr_miss_rate::.cpu.data     0.129987                       # mshr miss rate for overall accesses
system.l2.overall_mshr_miss_rate::total      0.163364                       # mshr miss rate for overall accesses
system.l2.demand_avg_mshr_miss_latency::.cpu.inst 69150.112233                       # average overall mshr miss latency
system.l2.demand_avg_mshr_miss_latency::.cpu.data 66178.293316                       # average overall mshr miss latency
system.l2.demand_avg_mshr_miss_latency::total 67267.064145                       # average overall mshr miss latency
system.l2.overall_avg_mshr_miss_latency::.cpu.inst 69150.112233                       # average overall mshr miss latency
system.l2.overall_avg_mshr_miss_latency::.cpu.data 66178.293316                       # average overall mshr miss latency
system.l2.overall_avg_mshr_miss_latency::total 67267.064145                       # average overall mshr miss latency
system.l2.replacements                            340                       # number of replacements
system.l2.WritebackDirty_hits::.writebacks        22509                       # number of WritebackDirty hits
system.l2.WritebackDirty_hits::total            22509                       # number of WritebackDirty hits
system.l2.WritebackDirty_accesses::.writebacks        22509                       # number of WritebackDirty accesses(hits+misses)
system.l2.WritebackDirty_accesses::total        22509                       # number of WritebackDirty accesses(hits+misses)
system.l2.WritebackClean_hits::.writebacks         5548                       # number of WritebackClean hits
system.l2.WritebackClean_hits::total             5548                       # number of WritebackClean hits
system.l2.WritebackClean_accesses::.writebacks         5548                       # number of WritebackClean accesses(hits+misses)
system.l2.WritebackClean_accesses::total         5548                       # number of WritebackClean accesses(hits+misses)
system.l2.CleanEvict_mshr_misses::.writebacks            7                       # number of CleanEvict MSHR misses
system.l2.CleanEvict_mshr_misses::total             7                       # number of CleanEvict MSHR misses
system.l2.CleanEvict_mshr_miss_rate::.writebacks          inf                       # mshr miss rate for CleanEvict accesses
system.l2.CleanEvict_mshr_miss_rate::total          inf                       # mshr miss rate for CleanEvict accesses
system.l2.ReadExReq_hits::.cpu.data              6582                       # number of ReadExReq hits
system.l2.ReadExReq_hits::total                  6582                       # number of ReadExReq hits
system.l2.ReadExReq_misses::.cpu.data            2811                       # number of ReadExReq misses
system.l2.ReadExReq_misses::total                2811                       # number of ReadExReq misses
system.l2.ReadExReq_miss_latency::.cpu.data    212232000                       # number of ReadExReq miss cycles
system.l2.ReadExReq_miss_latency::total     212232000                       # number of ReadExReq miss cycles
system.l2.ReadExReq_accesses::.cpu.data          9393                       # number of ReadExReq accesses(hits+misses)
system.l2.ReadExReq_accesses::total              9393                       # number of ReadExReq accesses(hits+misses)
system.l2.ReadExReq_miss_rate::.cpu.data     0.299265                       # miss rate for ReadExReq accesses
system.l2.ReadExReq_miss_rate::total         0.299265                       # miss rate for ReadExReq accesses
system.l2.ReadExReq_avg_miss_latency::.cpu.data 75500.533618                       # average ReadExReq miss latency
system.l2.ReadExReq_avg_miss_latency::total 75500.533618                       # average ReadExReq miss latency
system.l2.ReadExReq_mshr_misses::.cpu.data         2811                       # number of ReadExReq MSHR misses
system.l2.ReadExReq_mshr_misses::total           2811                       # number of ReadExReq MSHR misses
system.l2.ReadExReq_mshr_miss_latency::.cpu.data    184122000                       # number of ReadExReq MSHR miss cycles
system.l2.ReadExReq_mshr_miss_latency::total    184122000                       # number of ReadExReq MSHR miss cycles
system.l2.ReadExReq_mshr_miss_rate::.cpu.data     0.299265                       # mshr miss rate for ReadExReq accesses
system.l2.ReadExReq_mshr_miss_rate::total     0.299265                       # mshr miss rate for ReadExReq accesses
system.l2.ReadExReq_avg_mshr_miss_latency::.cpu.data 65500.533618                       # average ReadExReq mshr miss latency
system.l2.ReadExReq_avg_mshr_miss_latency::total 65500.533618                       # average ReadExReq mshr miss latency
system.l2.ReadCleanReq_hits::.cpu.inst           4282                       # number of ReadCleanReq hits
system.l2.ReadCleanReq_hits::total               4282                       # number of ReadCleanReq hits
system.l2.ReadCleanReq_misses::.cpu.inst         1782                       # number of ReadCleanReq misses
system.l2.ReadCleanReq_misses::total             1782                       # number of ReadCleanReq misses
system.l2.ReadCleanReq_miss_latency::.cpu.inst    141035500                       # number of ReadCleanReq miss cycles
system.l2.ReadCleanReq_miss_latency::total    141035500                       # number of ReadCleanReq miss cycles
system.l2.ReadCleanReq_accesses::.cpu.inst         6064                       # number of ReadCleanReq accesses(hits+misses)
system.l2.ReadCleanReq_accesses::total           6064                       # number of ReadCleanReq accesses(hits+misses)
system.l2.ReadCleanReq_miss_rate::.cpu.inst     0.293865                       # miss rate for ReadCleanReq accesses
system.l2.ReadCleanReq_miss_rate::total      0.293865                       # miss rate for ReadCleanReq accesses
system.l2.ReadCleanReq_avg_miss_latency::.cpu.inst 79144.500561                       # average ReadCleanReq miss latency
system.l2.ReadCleanReq_avg_miss_latency::total 79144.500561                       # average ReadCleanReq miss latency
system.l2.ReadCleanReq_mshr_misses::.cpu.inst         1782                       # number of ReadCleanReq MSHR misses
system.l2.ReadCleanReq_mshr_misses::total         1782                       # number of ReadCleanReq MSHR misses
system.l2.ReadCleanReq_mshr_miss_latency::.cpu.inst    123225500                       # number of ReadCleanReq MSHR miss cycles
system.l2.ReadCleanReq_mshr_miss_latency::total    123225500                       # number of ReadCleanReq MSHR miss cycles
system.l2.ReadCleanReq_mshr_miss_rate::.cpu.inst     0.293865                       # mshr miss rate for ReadCleanReq accesses
system.l2.ReadCleanReq_mshr_miss_rate::total     0.293865                       # mshr miss rate for ReadCleanReq accesses
system.l2.ReadCleanReq_avg_mshr_miss_latency::.cpu.inst 69150.112233                       # average ReadCleanReq mshr miss latency
system.l2.ReadCleanReq_avg_mshr_miss_latency::total 69150.112233                       # average ReadCleanReq mshr miss latency
system.l2.ReadSharedReq_hits::.cpu.data         14045                       # number of ReadSharedReq hits
system.l2.ReadSharedReq_hits::total             14045                       # number of ReadSharedReq hits
system.l2.ReadSharedReq_misses::.cpu.data          272                       # number of ReadSharedReq misses
system.l2.ReadSharedReq_misses::total             272                       # number of ReadSharedReq misses
system.l2.ReadSharedReq_miss_latency::.cpu.data     22644000                       # number of ReadSharedReq miss cycles
system.l2.ReadSharedReq_miss_latency::total     22644000                       # number of ReadSharedReq miss cycles
system.l2.ReadSharedReq_accesses::.cpu.data        14317                       # number of ReadSharedReq accesses(hits+misses)
system.l2.ReadSharedReq_accesses::total         14317                       # number of ReadSharedReq accesses(hits+misses)
system.l2.ReadSharedReq_miss_rate::.cpu.data     0.018998                       # miss rate for ReadSharedReq accesses
system.l2.ReadSharedReq_miss_rate::total     0.018998                       # miss rate for ReadSharedReq accesses
system.l2.ReadSharedReq_avg_miss_latency::.cpu.data        83250                       # average ReadSharedReq miss latency
system.l2.ReadSharedReq_avg_miss_latency::total        83250                       # average ReadSharedReq miss latency
system.l2.ReadSharedReq_mshr_hits::.cpu.data            1                       # number of ReadSharedReq MSHR hits
system.l2.ReadSharedReq_mshr_hits::total            1                       # number of ReadSharedReq MSHR hits
system.l2.ReadSharedReq_mshr_misses::.cpu.data          271                       # number of ReadSharedReq MSHR misses
system.l2.ReadSharedReq_mshr_misses::total          271                       # number of ReadSharedReq MSHR misses
system.l2.ReadSharedReq_mshr_miss_latency::.cpu.data     19839500                       # number of ReadSharedReq MSHR miss cycles
system.l2.ReadSharedReq_mshr_miss_latency::total     19839500                       # number of ReadSharedReq MSHR miss cycles
system.l2.ReadSharedReq_mshr_miss_rate::.cpu.data     0.018929                       # mshr miss rate for ReadSharedReq accesses
system.l2.ReadSharedReq_mshr_miss_rate::total     0.018929                       # mshr miss rate for ReadSharedReq accesses
system.l2.ReadSharedReq_avg_mshr_miss_latency::.cpu.data 73208.487085                       # average ReadSharedReq mshr miss latency
system.l2.ReadSharedReq_avg_mshr_miss_latency::total 73208.487085                       # average ReadSharedReq mshr miss latency
system.l2.power_state.pwrStateResidencyTicks::UNDEFINED   2008328500                       # Cumulative time (in ticks) in various power states
system.l2.tags.tagsinuse                  3564.778753                       # Cycle average of tags in use
system.l2.tags.total_refs                       58509                       # Total number of references to valid blocks.
system.l2.tags.sampled_refs                      4955                       # Sample count of references to valid blocks.
system.l2.tags.avg_refs                     11.808073                       # Average number of references to valid blocks.
system.l2.tags.warmup_cycle                     77000                       # Cycle when the warmup percentage was hit.
system.l2.tags.occ_blocks::.writebacks      35.991048                       # Average occupied blocks per requestor
system.l2.tags.occ_blocks::.cpu.inst      1299.337537                       # Average occupied blocks per requestor
system.l2.tags.occ_blocks::.cpu.data      2229.450168                       # Average occupied blocks per requestor
system.l2.tags.occ_percent::.writebacks      0.004393                       # Average percentage of cache occupancy
system.l2.tags.occ_percent::.cpu.inst        0.158611                       # Average percentage of cache occupancy
system.l2.tags.occ_percent::.cpu.data        0.272150                       # Average percentage of cache occupancy
system.l2.tags.occ_percent::total            0.435154                       # Average percentage of cache occupancy
system.l2.tags.occ_task_id_blocks::1024          4615                       # Occupied blocks per task id
system.l2.tags.age_task_id_blocks_1024::0           87                       # Occupied blocks per task id
system.l2.tags.age_task_id_blocks_1024::1            1                       # Occupied blocks per task id
system.l2.tags.age_task_id_blocks_1024::2          463                       # Occupied blocks per task id
system.l2.tags.age_task_id_blocks_1024::3         4064                       # Occupied blocks per task id
system.l2.tags.occ_task_id_percent::1024     0.563354                       # Percentage of cache occupancy per task id
system.l2.tags.tag_accesses                    121991                       # Number of tag accesses
system.l2.tags.data_accesses                   121991                       # Number of data accesses
system.l2.tags.power_state.pwrStateResidencyTicks::UNDEFINED   2008328500                       # Cumulative time (in ticks) in various power states
system.cpu_voltage_domain.voltage                   1                       # Voltage in Volts
system.mem_ctrls.avgPriority_.writebacks::samples        33.00                       # Average QoS priority value for accepted requests
system.mem_ctrls.avgPriority_.cpu.inst::samples      1781.00                       # Average QoS priority value for accepted requests
system.mem_ctrls.avgPriority_.cpu.data::samples      3075.00                       # Average QoS priority value for accepted requests
system.mem_ctrls.priorityMinLatency      0.000000018750                       # per QoS priority minimum request to response latency (s)
system.mem_ctrls.priorityMaxLatency      0.003865314750                       # per QoS priority maximum request to response latency (s)
system.mem_ctrls.numReadWriteTurnArounds            1                       # Number of turnarounds from READ to WRITE
system.mem_ctrls.numWriteReadTurnArounds            1                       # Number of turnarounds from WRITE to READ
system.mem_ctrls.numStayReadState               10195                       # Number of times bus staying in READ state
system.mem_ctrls.numStayWriteState                 15                       # Number of times bus staying in WRITE state
system.mem_ctrls.readReqs                        4863                       # Number of read requests accepted
system.mem_ctrls.writeReqs                         36                       # Number of write requests accepted
system.mem_ctrls.readBursts                      4863                       # Number of controller read bursts, including those serviced by the write queue
system.mem_ctrls.writeBursts                       36                       # Number of controller write bursts, including those merged in the write queue
system.mem_ctrls.servicedByWrQ                      7                       # Number of controller read bursts serviced by the write queue
system.mem_ctrls.mergedWrBursts                     3                       # Number of controller write bursts merged with an existing one
system.mem_ctrls.neitherReadNorWriteReqs            0                       # Number of requests that are neither read nor write
system.mem_ctrls.avgRdQLen                       1.04                       # Average read queue length when enqueuing
system.mem_ctrls.avgWrQLen                       9.98                       # Average write queue length when enqueuing
system.mem_ctrls.numRdRetry                         0                       # Number of times read queue was full causing retry
system.mem_ctrls.numWrRetry                         0                       # Number of times write queue was full causing retry
system.mem_ctrls.readPktSize::0                     0                       # Read request sizes (log2)
system.mem_ctrls.readPktSize::1                     0                       # Read request sizes (log2)
system.mem_ctrls.readPktSize::2                     0                       # Read request sizes (log2)
system.mem_ctrls.readPktSize::3                     0                       # Read request sizes (log2)
system.mem_ctrls.readPktSize::4                     0                       # Read request sizes (log2)
system.mem_ctrls.readPktSize::5                     0                       # Read request sizes (log2)
system.mem_ctrls.readPktSize::6                  4863                       # Read request sizes (log2)
system.mem_ctrls.writePktSize::0                    0                       # Write request sizes (log2)
system.mem_ctrls.writePktSize::1                    0                       # Write request sizes (log2)
system.mem_ctrls.writePktSize::2                    0                       # Write request sizes (log2)
system.mem_ctrls.writePktSize::3                    0                       # Write request sizes (log2)
system.mem_ctrls.writePktSize::4                    0                       # Write request sizes (log2)
system.mem_ctrls.writePktSize::5                    0                       # Write request sizes (log2)
system.mem_ctrls.writePktSize::6                   36                       # Write request sizes (log2)
system.mem_ctrls.rdQLenPdf::0                    4080                       # What read queue length does an incoming req see
system.mem_ctrls.rdQLenPdf::1                     600                       # What read queue length does an incoming req see
system.mem_ctrls.rdQLenPdf::2                     141                       # What read queue length does an incoming req see
system.mem_ctrls.rdQLenPdf::3                      26                       # What read queue length does an incoming req see
system.mem_ctrls.rdQLenPdf::4                       9                       # What read queue length does an incoming req see
system.mem_ctrls.rdQLenPdf::5                       0                       # What read queue length does an incoming req see
system.mem_ctrls.rdQLenPdf::6                       0                       # What read queue length does an incoming req see
system.mem_ctrls.rdQLenPdf::7                       0                       # What read queue length does an incoming req see
system.mem_ctrls.rdQLenPdf::8                       0                       # What read queue length does an incoming req see
system.mem_ctrls.rdQLenPdf::9                       0                       # What read queue length does an incoming req see
system.mem_ctrls.rdQLenPdf::10                      0                       # What read queue length does an incoming req see
system.mem_ctrls.rdQLenPdf::11                      0                       # What read queue length does an incoming req see
system.mem_ctrls.rdQLenPdf::12                      0                       # What read queue length does an incoming req see
system.mem_ctrls.rdQLenPdf::13                      0                       # What read queue length does an incoming req see
system.mem_ctrls.rdQLenPdf::14                      0                       # What read queue length does an incoming req see
system.mem_ctrls.rdQLenPdf::15                      0                       # What read queue length does an incoming req see
system.mem_ctrls.rdQLenPdf::16                      0                       # What read queue length does an incoming req see
system.mem_ctrls.rdQLenPdf::17                      0                       # What read queue length does an incoming req see
system.mem_ctrls.rdQLenPdf::18                      0                       # What read queue length does an incoming req see
system.mem_ctrls.rdQLenPdf::19                      0                       # What read queue length does an incoming req see
system.mem_ctrls.rdQLenPdf::20                      0                       # What read queue length does an incoming req see
system.mem_ctrls.rdQLenPdf::21                      0                       # What read queue length does an incoming req see
system.mem_ctrls.rdQLenPdf::22                      0                       # What read queue length does an incoming req see
system.mem_ctrls.rdQLenPdf::23                      0                       # What read queue length does an incoming req see
system.mem_ctrls.rdQLenPdf::24                      0                       # What read queue length does an incoming req see
system.mem_ctrls.rdQLenPdf::25                      0                       # What read queue length does an incoming req see
system.mem_ctrls.rdQLenPdf::26                      0                       # What read queue length does an incoming req see
system.mem_ctrls.rdQLenPdf::27                      0                       # What read queue length does an incoming req see
system.mem_ctrls.rdQLenPdf::28                      0                       # What read queue length does an incoming req see
system.mem_ctrls.rdQLenPdf::29                      0                       # What read queue length does an incoming req see
system.mem_ctrls.rdQLenPdf::30                      0                       # What read queue length does an incoming req see
system.mem_ctrls.rdQLenPdf::31                      0                       # What read queue length does an incoming req see
system.mem_ctrls.wrQLenPdf::0                       1                       # What write queue length does an incoming req see
system.mem_ctrls.wrQLenPdf::1                       1                       # What write queue length does an incoming req see
system.mem_ctrls.wrQLenPdf::2                       1                       # What write queue length does an incoming req see
system.mem_ctrls.wrQLenPdf::3                       1                       # What write queue length does an incoming req see
system.mem_ctrls.wrQLenPdf::4                       1                       # What write queue length does an incoming req see
system.mem_ctrls.wrQLenPdf::5                       1                       # What write queue length does an incoming req see
system.mem_ctrls.wrQLenPdf::6                       1                       # What write queue length does an incoming req see
system.mem_ctrls.wrQLenPdf::7                       1                       # What write queue length does an incoming req see
system.mem_ctrls.wrQLenPdf::8                       1                       # What write queue length does an incoming req see
system.mem_ctrls.wrQLenPdf::9                       1                       # What write queue length does an incoming req see
system.mem_ctrls.wrQLenPdf::10                      1                       # What write queue length does an incoming req see
system.mem_ctrls.wrQLenPdf::11                      1                       # What write queue length does an incoming req see
system.mem_ctrls.wrQLenPdf::12                      1                       # What write queue length does an incoming req see
system.mem_ctrls.wrQLenPdf::13                      1                       # What write queue length does an incoming req see
system.mem_ctrls.wrQLenPdf::14                      1                       # What write queue length does an incoming req see
system.mem_ctrls.wrQLenPdf::15                      1                       # What write queue length does an incoming req see
system.mem_ctrls.wrQLenPdf::16                      1                       # What write queue length does an incoming req see
system.mem_ctrls.wrQLenPdf::17                      1                       # What write queue length does an incoming req see
system.mem_ctrls.wrQLenPdf::18                      1                       # What write queue length does an incoming req see
system.mem_ctrls.wrQLenPdf::19                      1                       # What write queue length does an incoming req see
system.mem_ctrls.wrQLenPdf::20                      1                       # What write queue length does an incoming req see
system.mem_ctrls.wrQLenPdf::21                      1                       # What write queue length does an incoming req see
system.mem_ctrls.wrQLenPdf::22                      1                       # What write queue length does an incoming req see
system.mem_ctrls.wrQLenPdf::23                      1                       # What write queue length does an incoming req see
system.mem_ctrls.wrQLenPdf::24                      1                       # What write queue length does an incoming req see
system.mem_ctrls.wrQLenPdf::25                      1                       # What write queue length does an incoming req see
system.mem_ctrls.wrQLenPdf::26                      1                       # What write queue length does an incoming req see
system.mem_ctrls.wrQLenPdf::27                      1                       # What write queue length does an incoming req see
system.mem_ctrls.wrQLenPdf::28                      1                       # What write queue length does an incoming req see
system.mem_ctrls.wrQLenPdf::29                      1                       # What write queue length does an incoming req see
system.mem_ctrls.wrQLenPdf::30                      1                       # What write queue length does an incoming req see
system.mem_ctrls.wrQLenPdf::31                      1                       # What write queue length does an incoming req see
system.mem_ctrls.wrQLenPdf::32                      1                       # What write queue length does an incoming req see
system.mem_ctrls.wrQLenPdf::33                      0                       # What write queue length does an incoming req see
system.mem_ctrls.wrQLenPdf::34                      0                       # What write queue length does an incoming req see
system.mem_ctrls.wrQLenPdf::35                      0                       # What write queue length does an incoming req see
system.mem_ctrls.wrQLenPdf::36                      0                       # What write queue length does an incoming req see
system.mem_ctrls.wrQLenPdf::37                      0                       # What write queue length does an incoming req see
system.mem_ctrls.wrQLenPdf::38                      0                       # What write queue length does an incoming req see
system.mem_ctrls.wrQLenPdf::39                      0                       # What write queue length does an incoming req see
system.mem_ctrls.wrQLenPdf::40                      0                       # What write queue length does an incoming req see
system.mem_ctrls.wrQLenPdf::41                      0                       # What write queue length does an incoming req see
system.mem_ctrls.wrQLenPdf::42                      0                       # What write queue length does an incoming req see
system.mem_ctrls.wrQLenPdf::43                      0                       # What write queue length does an incoming req see
system.mem_ctrls.wrQLenPdf::44                      0                       # What write queue length does an incoming req see
system.mem_ctrls.wrQLenPdf::45                      0                       # What write queue length does an incoming req see
system.mem_ctrls.wrQLenPdf::46                      0                       # What write queue length does an incoming req see
system.mem_ctrls.wrQLenPdf::47                      0                       # What write queue length does an incoming req see
system.mem_ctrls.wrQLenPdf::48                      0                       # What write queue length does an incoming req see
system.mem_ctrls.wrQLenPdf::49                      0                       # What write queue length does an incoming req see
system.mem_ctrls.wrQLenPdf::50                      0                       # What write queue length does an incoming req see
system.mem_ctrls.wrQLenPdf::51                      0                       # What write queue length does an incoming req see
system.mem_ctrls.wrQLenPdf::52                      0                       # What write queue length does an incoming req see
system.mem_ctrls.wrQLenPdf::53                      0                       # What write queue length does an incoming req see
system.mem_ctrls.wrQLenPdf::54                      0                       # What write queue length does an incoming req see
system.mem_ctrls.wrQLenPdf::55                      0                       # What write queue length does an incoming req see
system.mem_ctrls.wrQLenPdf::56                      0                       # What write queue length does an incoming req see
system.mem_ctrls.wrQLenPdf::57                      0                       # What write queue length does an incoming req see
system.mem_ctrls.wrQLenPdf::58                      0                       # What write queue length does an incoming req see
system.mem_ctrls.wrQLenPdf::59                      0                       # What write queue length does an incoming req see
system.mem_ctrls.wrQLenPdf::60                      0                       # What write queue length does an incoming req see
system.mem_ctrls.wrQLenPdf::61                      0                       # What write queue length does an incoming req see
system.mem_ctrls.wrQLenPdf::62                      0                       # What write queue length does an incoming req see
system.mem_ctrls.wrQLenPdf::63                      0                       # What write queue length does an incoming req see
system.mem_ctrls.rdPerTurnAround::samples            1                       # Reads before turning the bus around for writes
system.mem_ctrls.rdPerTurnAround::mean           4845                       # Reads before turning the bus around for writes
system.mem_ctrls.rdPerTurnAround::gmean   4845.000000                       # Reads before turning the bus around for writes
system.mem_ctrls.rdPerTurnAround::stdev           nan                       # Reads before turning the bus around for writes
system.mem_ctrls.rdPerTurnAround::4608-4863            1    100.00%    100.00% # Reads before turning the bus around for writes
system.mem_ctrls.rdPerTurnAround::total             1                       # Reads before turning the bus around for writes
system.mem_ctrls.wrPerTurnAround::samples            1                       # Writes before turning the bus around for reads
system.mem_ctrls.wrPerTurnAround::mean             16                       # Writes before turning the bus around for reads
system.mem_ctrls.wrPerTurnAround::gmean     16.000000                       # Writes before turning the bus around for reads
system.mem_ctrls.wrPerTurnAround::stdev           nan                       # Writes before turning the bus around for reads
system.mem_ctrls.wrPerTurnAround::16                1    100.00%    100.00% # Writes before turning the bus around for reads
system.mem_ctrls.wrPerTurnAround::total             1                       # Writes before turning the bus around for reads
system.mem_ctrls.bytesReadWrQ                     448                       # Total number of bytes read from write queue
system.mem_ctrls.bytesReadSys                  311232                       # Total read bytes from the system interface side
system.mem_ctrls.bytesWrittenSys                 2304                       # Total written bytes from the system interface side
system.mem_ctrls.avgRdBWSys                    154.97                       # Average system read bandwidth in MiByte/s
system.mem_ctrls.avgWrBWSys                      1.15                       # Average system write bandwidth in MiByte/s
system.mem_ctrls.totGap                    2008251000                       # Total gap between requests
system.mem_ctrls.avgGap                     409930.80                       # Average gap between requests
system.mem_ctrls.requestorReadBytes::.cpu.inst       113984                       # Per-requestor bytes read from memory
system.mem_ctrls.requestorReadBytes::.cpu.data       196800                       # Per-requestor bytes read from memory
system.mem_ctrls.requestorWriteBytes::.writebacks         1024                       # Per-requestor bytes write to memory
system.mem_ctrls.requestorReadRate::.cpu.inst 56755655.262572832406                       # Per-requestor bytes read from memory rate (Bytes/sec)
system.mem_ctrls.requestorReadRate::.cpu.data 97991937.076031133533                       # Per-requestor bytes read from memory rate (Bytes/sec)
system.mem_ctrls.requestorWriteRate::.writebacks 509876.745761462837                       # Per-requestor bytes write to memory rate (Bytes/sec)
system.mem_ctrls.requestorReadAccesses::.cpu.inst         1781                       # Per-requestor read serviced memory accesses
system.mem_ctrls.requestorReadAccesses::.cpu.data         3082                       # Per-requestor read serviced memory accesses
system.mem_ctrls.requestorWriteAccesses::.writebacks           36                       # Per-requestor write serviced memory accesses
system.mem_ctrls.requestorReadTotalLat::.cpu.inst     50000250                       # Per-requestor read total memory access latency
system.mem_ctrls.requestorReadTotalLat::.cpu.data     77656000                       # Per-requestor read total memory access latency
system.mem_ctrls.requestorWriteTotalLat::.writebacks  14109345000                       # Per-requestor write total memory access latency
system.mem_ctrls.requestorReadAvgLat::.cpu.inst     28074.26                       # Per-requestor read average memory access latency
system.mem_ctrls.requestorReadAvgLat::.cpu.data     25196.63                       # Per-requestor read average memory access latency
system.mem_ctrls.requestorWriteAvgLat::.writebacks 391926250.00                       # Per-requestor write average memory access latency
system.mem_ctrls.dram.bytes_read::.cpu.inst       113984                       # Number of bytes read from this memory
system.mem_ctrls.dram.bytes_read::.cpu.data       197248                       # Number of bytes read from this memory
system.mem_ctrls.dram.bytes_read::total        311232                       # Number of bytes read from this memory
system.mem_ctrls.dram.bytes_inst_read::.cpu.inst       113984                       # Number of instructions bytes read from this memory
system.mem_ctrls.dram.bytes_inst_read::total       113984                       # Number of instructions bytes read from this memory
system.mem_ctrls.dram.bytes_written::.writebacks         2304                       # Number of bytes written to this memory
system.mem_ctrls.dram.bytes_written::total         2304                       # Number of bytes written to this memory
system.mem_ctrls.dram.num_reads::.cpu.inst         1781                       # Number of read requests responded to by this memory
system.mem_ctrls.dram.num_reads::.cpu.data         3082                       # Number of read requests responded to by this memory
system.mem_ctrls.dram.num_reads::total           4863                       # Number of read requests responded to by this memory
system.mem_ctrls.dram.num_writes::.writebacks           36                       # Number of write requests responded to by this memory
system.mem_ctrls.dram.num_writes::total            36                       # Number of write requests responded to by this memory
system.mem_ctrls.dram.bw_read::.cpu.inst     56755655                       # Total read bandwidth from this memory (bytes/s)
system.mem_ctrls.dram.bw_read::.cpu.data     98215008                       # Total read bandwidth from this memory (bytes/s)
system.mem_ctrls.dram.bw_read::total        154970663                       # Total read bandwidth from this memory (bytes/s)
system.mem_ctrls.dram.bw_inst_read::.cpu.inst     56755655                       # Instruction read bandwidth from this memory (bytes/s)
system.mem_ctrls.dram.bw_inst_read::total     56755655                       # Instruction read bandwidth from this memory (bytes/s)
system.mem_ctrls.dram.bw_write::.writebacks      1147223                       # Write bandwidth from this memory (bytes/s)
system.mem_ctrls.dram.bw_write::total         1147223                       # Write bandwidth from this memory (bytes/s)
system.mem_ctrls.dram.bw_total::.writebacks      1147223                       # Total bandwidth to/from this memory (bytes/s)
system.mem_ctrls.dram.bw_total::.cpu.inst     56755655                       # Total bandwidth to/from this memory (bytes/s)
system.mem_ctrls.dram.bw_total::.cpu.data     98215008                       # Total bandwidth to/from this memory (bytes/s)
system.mem_ctrls.dram.bw_total::total       156117886                       # Total bandwidth to/from this memory (bytes/s)
system.mem_ctrls.dram.readBursts                 4856                       # Number of DRAM read bursts
system.mem_ctrls.dram.writeBursts                  16                       # Number of DRAM write bursts
system.mem_ctrls.dram.perBankRdBursts::0          363                       # Per bank write bursts
system.mem_ctrls.dram.perBankRdBursts::1          375                       # Per bank write bursts
system.mem_ctrls.dram.perBankRdBursts::2          518                       # Per bank write bursts
system.mem_ctrls.dram.perBankRdBursts::3          390                       # Per bank write bursts
system.mem_ctrls.dram.perBankRdBursts::4          349                       # Per bank write bursts
system.mem_ctrls.dram.perBankRdBursts::5          391                       # Per bank write bursts
system.mem_ctrls.dram.perBankRdBursts::6          252                       # Per bank write bursts
system.mem_ctrls.dram.perBankRdBursts::7          196                       # Per bank write bursts
system.mem_ctrls.dram.perBankRdBursts::8          250                       # Per bank write bursts
system.mem_ctrls.dram.perBankRdBursts::9          270                       # Per bank write bursts
system.mem_ctrls.dram.perBankRdBursts::10          260                       # Per bank write bursts
system.mem_ctrls.dram.perBankRdBursts::11          177                       # Per bank write bursts
system.mem_ctrls.dram.perBankRdBursts::12          244                       # Per bank write bursts
system.mem_ctrls.dram.perBankRdBursts::13          258                       # Per bank write bursts
system.mem_ctrls.dram.perBankRdBursts::14          311                       # Per bank write bursts
system.mem_ctrls.dram.perBankRdBursts::15          252                       # Per bank write bursts
system.mem_ctrls.dram.perBankWrBursts::0            0                       # Per bank write bursts
system.mem_ctrls.dram.perBankWrBursts::1            0                       # Per bank write bursts
system.mem_ctrls.dram.perBankWrBursts::2            8                       # Per bank write bursts
system.mem_ctrls.dram.perBankWrBursts::3            0                       # Per bank write bursts
system.mem_ctrls.dram.perBankWrBursts::4            6                       # Per bank write bursts
system.mem_ctrls.dram.perBankWrBursts::5            0                       # Per bank write bursts
system.mem_ctrls.dram.perBankWrBursts::6            0                       # Per bank write bursts
system.mem_ctrls.dram.perBankWrBursts::7            0                       # Per bank write bursts
system.mem_ctrls.dram.perBankWrBursts::8            0                       # Per bank write bursts
system.mem_ctrls.dram.perBankWrBursts::9            0                       # Per bank write bursts
system.mem_ctrls.dram.perBankWrBursts::10            0                       # Per bank write bursts
system.mem_ctrls.dram.perBankWrBursts::11            0                       # Per bank write bursts
system.mem_ctrls.dram.perBankWrBursts::12            1                       # Per bank write bursts
system.mem_ctrls.dram.perBankWrBursts::13            0                       # Per bank write bursts
system.mem_ctrls.dram.perBankWrBursts::14            0                       # Per bank write bursts
system.mem_ctrls.dram.perBankWrBursts::15            1                       # Per bank write bursts
system.mem_ctrls.dram.totQLat                36606250                       # Total ticks spent queuing
system.mem_ctrls.dram.totBusLat              24280000                       # Total ticks spent in databus transfers
[...]
system.cpu.dcache.SoftPFReq_hits::.cpu.data         7761                       # number of SoftPFReq hits
system.cpu.dcache.SoftPFReq_hits::total          7761                       # number of SoftPFReq hits
system.cpu.dcache.SoftPFReq_misses::.cpu.data          613                       # number of SoftPFReq misses
system.cpu.dcache.SoftPFReq_misses::total          613                       # number of SoftPFReq misses
system.cpu.dcache.SoftPFReq_accesses::.cpu.data         8374                       # number of SoftPFReq accesses(hits+misses)
system.cpu.dcache.SoftPFReq_accesses::total         8374                       # number of SoftPFReq accesses(hits+misses)
system.cpu.dcache.SoftPFReq_miss_rate::.cpu.data     0.073203                       # miss rate for SoftPFReq accesses
system.cpu.dcache.SoftPFReq_miss_rate::total     0.073203                       # miss rate for SoftPFReq accesses
system.cpu.dcache.SoftPFReq_mshr_misses::.cpu.data          435                       # number of SoftPFReq MSHR misses
system.cpu.dcache.SoftPFReq_mshr_misses::total          435                       # number of SoftPFReq MSHR misses
system.cpu.dcache.SoftPFReq_mshr_miss_latency::.cpu.data      5291500                       # number of SoftPFReq MSHR miss cycles
system.cpu.dcache.SoftPFReq_mshr_miss_latency::total      5291500                       # number of SoftPFReq MSHR miss cycles
system.cpu.dcache.SoftPFReq_mshr_miss_rate::.cpu.data     0.051947                       # mshr miss rate for SoftPFReq accesses
system.cpu.dcache.SoftPFReq_mshr_miss_rate::total     0.051947                       # mshr miss rate for SoftPFReq accesses
system.cpu.dcache.SoftPFReq_avg_mshr_miss_latency::.cpu.data 12164.367816                       # average SoftPFReq mshr miss latency
system.cpu.dcache.SoftPFReq_avg_mshr_miss_latency::total 12164.367816                       # average SoftPFReq mshr miss latency
system.cpu.dcache.power_state.pwrStateResidencyTicks::UNDEFINED   2008328500                       # Cumulative time (in ticks) in various power states
system.cpu.dcache.tags.tagsinuse           498.303179                       # Cycle average of tags in use
system.cpu.dcache.tags.total_refs             1310409                       # Total number of references to valid blocks.
system.cpu.dcache.tags.sampled_refs             23710                       # Sample count of references to valid blocks.
system.cpu.dcache.tags.avg_refs             55.268199                       # Average number of references to valid blocks.
system.cpu.dcache.tags.warmup_cycle            190500                       # Cycle when the warmup percentage was hit.
system.cpu.dcache.tags.occ_blocks::.cpu.data   498.303179                       # Average occupied blocks per requestor
system.cpu.dcache.tags.occ_percent::.cpu.data     0.973248                       # Average percentage of cache occupancy
system.cpu.dcache.tags.occ_percent::total     0.973248                       # Average percentage of cache occupancy
system.cpu.dcache.tags.occ_task_id_blocks::1024          512                       # Occupied blocks per task id
system.cpu.dcache.tags.age_task_id_blocks_1024::0          102                       # Occupied blocks per task id
system.cpu.dcache.tags.age_task_id_blocks_1024::1          404                       # Occupied blocks per task id
system.cpu.dcache.tags.age_task_id_blocks_1024::2            6                       # Occupied blocks per task id
system.cpu.dcache.tags.occ_task_id_percent::1024            1                       # Percentage of cache occupancy per task id
system.cpu.dcache.tags.tag_accesses           5467702                       # Number of tag accesses
system.cpu.dcache.tags.data_accesses          5467702                       # Number of data accesses
system.cpu.dcache.tags.power_state.pwrStateResidencyTicks::UNDEFINED   2008328500                       # Cumulative time (in ticks) in various power states
system.cpu.power_state.pwrStateResidencyTicks::ON   2008328500                       # Cumulative time (in ticks) in various power states
system.cpu.branchPred.lookups                 1373916                       # Number of BP lookups
system.cpu.branchPred.condPredicted           1200756                       # Number of conditional branches predicted
system.cpu.branchPred.condIncorrect             80485                       # Number of conditional branches incorrect
system.cpu.branchPred.BTBLookups               743500                       # Number of BTB lookups
system.cpu.branchPred.BTBHits                  737202                       # Number of BTB hits
system.cpu.branchPred.BTBHitPct             99.152925                       # BTB Hit Percentage
system.cpu.branchPred.RASUsed                   40891                       # Number of times the RAS was used to get a target.
system.cpu.branchPred.RASIncorrect                 14                       # Number of incorrect RAS predictions.
system.cpu.branchPred.indirectLookups           15334                       # Number of indirect predictor lookups.
system.cpu.branchPred.indirectHits              11071                       # Number of indirect target hits.
system.cpu.branchPred.indirectMisses             4263                       # Number of indirect misses.
system.cpu.branchPred.indirectMispredicted          756                       # Number of mispredicted indirect branches.
system.cpu.commit.commitSquashedInsts         3203385                       # The number of squashed insts skipped by commit
system.cpu.commit.commitNonSpecStalls             215                       # The number of times commit has been forced to stall to communicate backwards
system.cpu.commit.branchMispredicts             76819                       # The number of times a branch was mispredicted
system.cpu.commit.numCommittedDist::samples      3435352                       # Number of insts commited each cycle
system.cpu.commit.numCommittedDist::mean     2.049203                       # Number of insts commited each cycle
system.cpu.commit.numCommittedDist::stdev     2.661601                       # Number of insts commited each cycle
system.cpu.commit.numCommittedDist::underflows            0      0.00%      0.00% # Number of insts commited each cycle
system.cpu.commit.numCommittedDist::0         1429838     41.62%     41.62% # Number of insts commited each cycle
system.cpu.commit.numCommittedDist::1          651604     18.97%     60.59% # Number of insts commited each cycle
system.cpu.commit.numCommittedDist::2          308494      8.98%     69.57% # Number of insts commited each cycle
system.cpu.commit.numCommittedDist::3          325778      9.48%     79.05% # Number of insts commited each cycle
system.cpu.commit.numCommittedDist::4          152270      4.43%     83.48% # Number of insts commited each cycle
system.cpu.commit.numCommittedDist::5           68460      1.99%     85.48% # Number of insts commited each cycle
system.cpu.commit.numCommittedDist::6           49658      1.45%     86.92% # Number of insts commited each cycle
system.cpu.commit.numCommittedDist::7           49521      1.44%     88.36% # Number of insts commited each cycle
system.cpu.commit.numCommittedDist::8          399729     11.64%    100.00% # Number of insts commited each cycle
system.cpu.commit.numCommittedDist::overflows            0      0.00%    100.00% # Number of insts commited each cycle
system.cpu.commit.numCommittedDist::min_value            0                       # Number of insts commited each cycle
system.cpu.commit.numCommittedDist::max_value            8                       # Number of insts commited each cycle
system.cpu.commit.numCommittedDist::total      3435352                       # Number of insts commited each cycle
system.cpu.commit.instsCommitted              3827045                       # Number of instructions committed
system.cpu.commit.opsCommitted                7039733                       # Number of ops (including micro ops) committed
system.cpu.commit.memRefs                     1156212                       # Number of memory references committed
system.cpu.commit.loads                        793007                       # Number of loads committed
system.cpu.commit.amos                              0                       # Number of atomic instructions committed
system.cpu.commit.membars                           0                       # Number of memory barriers committed
system.cpu.commit.branches                     810897                       # Number of branches committed
system.cpu.commit.vector                            0                       # Number of committed Vector instructions.
system.cpu.commit.floating                     123616                       # Number of committed floating point instructions.
system.cpu.commit.integer                     6820014                       # Number of committed integer instructions.
system.cpu.commit.functionCalls                 29685                       # Number of function calls committed.
system.cpu.commit.committedInstType_0::No_OpClass       138426      1.97%      1.97% # Class of committed instruction
system.cpu.commit.committedInstType_0::IntAlu      5099994     72.45%     74.41% # Class of committed instruction
system.cpu.commit.committedInstType_0::IntMult        20124      0.29%     74.70% # Class of committed instruction
system.cpu.commit.committedInstType_0::IntDiv       568663      8.08%     82.78% # Class of committed instruction
system.cpu.commit.committedInstType_0::FloatAdd          980      0.01%     82.79% # Class of committed instruction
system.cpu.commit.committedInstType_0::FloatCmp            0      0.00%     82.79% # Class of committed instruction
system.cpu.commit.committedInstType_0::FloatCvt            0      0.00%     82.79% # Class of committed instruction
system.cpu.commit.committedInstType_0::FloatMult            0      0.00%     82.79% # Class of committed instruction
system.cpu.commit.committedInstType_0::FloatMultAcc            0      0.00%     82.79% # Class of committed instruction
system.cpu.commit.committedInstType_0::FloatDiv            0      0.00%     82.79% # Class of committed instruction
system.cpu.commit.committedInstType_0::FloatMisc            0      0.00%     82.79% # Class of committed instruction
system.cpu.commit.committedInstType_0::FloatSqrt            0      0.00%     82.79% # Class of committed instruction
system.cpu.commit.committedInstType_0::SimdAdd         2442      0.03%     82.82% # Class of committed instruction
system.cpu.commit.committedInstType_0::SimdAddAcc            0      0.00%     82.82% # Class of committed instruction
system.cpu.commit.committedInstType_0::SimdAlu        30662      0.44%     83.26% # Class of committed instruction
system.cpu.commit.committedInstType_0::SimdCmp            0      0.00%     83.26% # Class of committed instruction
system.cpu.commit.committedInstType_0::SimdCvt        11988      0.17%     83.43% # Class of committed instruction
system.cpu.commit.committedInstType_0::SimdMisc         8480      0.12%     83.55% # Class of committed instruction
system.cpu.commit.committedInstType_0::SimdMult            0      0.00%     83.55% # Class of committed instruction
system.cpu.commit.committedInstType_0::SimdMultAcc            0      0.00%     83.55% # Class of committed instruction
system.cpu.commit.committedInstType_0::SimdShift         1222      0.02%     83.57% # Class of committed instruction
system.cpu.commit.committedInstType_0::SimdShiftAcc            0      0.00%     83.57% # Class of committed instruction
system.cpu.commit.committedInstType_0::SimdDiv            0      0.00%     83.57% # Class of committed instruction
system.cpu.commit.committedInstType_0::SimdSqrt            0      0.00%     83.57% # Class of committed instruction
system.cpu.commit.committedInstType_0::SimdFloatAdd           16      0.00%     83.57% # Class of committed instruction
system.cpu.commit.committedInstType_0::SimdFloatAlu            0      0.00%     83.57% # Class of committed instruction
system.cpu.commit.committedInstType_0::SimdFloatCmp            0      0.00%     83.57% # Class of committed instruction
system.cpu.commit.committedInstType_0::SimdFloatCvt          393      0.01%     83.57% # Class of committed instruction
system.cpu.commit.committedInstType_0::SimdFloatDiv          131      0.00%     83.58% # Class of committed instruction
system.cpu.commit.committedInstType_0::SimdFloatMisc            0      0.00%     83.58% # Class of committed instruction
system.cpu.commit.committedInstType_0::SimdFloatMult            0      0.00%     83.58% # Class of committed instruction
system.cpu.commit.committedInstType_0::SimdFloatMultAcc            0      0.00%     83.58% # Class of committed instruction
system.cpu.commit.committedInstType_0::SimdFloatSqrt            0      0.00%     83.58% # Class of committed instruction
system.cpu.commit.committedInstType_0::SimdReduceAdd            0      0.00%     83.58% # Class of committed instruction
system.cpu.commit.committedInstType_0::SimdReduceAlu            0      0.00%     83.58% # Class of committed instruction
system.cpu.commit.committedInstType_0::SimdReduceCmp            0      0.00%     83.58% # Class of committed instruction
system.cpu.commit.committedInstType_0::SimdFloatReduceAdd            0      0.00%     83.58% # Class of committed instruction
system.cpu.commit.committedInstType_0::SimdFloatReduceCmp            0      0.00%     83.58% # Class of committed instruction
system.cpu.commit.committedInstType_0::SimdAes            0      0.00%     83.58% # Class of committed instruction
system.cpu.commit.committedInstType_0::SimdAesMix            0      0.00%     83.58% # Class of committed instruction
system.cpu.commit.committedInstType_0::SimdSha1Hash            0      0.00%     83.58% # Class of committed instruction
system.cpu.commit.committedInstType_0::SimdSha1Hash2            0      0.00%     83.58% # Class of committed instruction
system.cpu.commit.committedInstType_0::SimdSha256Hash            0      0.00%     83.58% # Class of committed instruction
system.cpu.commit.committedInstType_0::SimdSha256Hash2            0      0.00%     83.58% # Class of committed instruction
system.cpu.commit.committedInstType_0::SimdShaSigma2            0      0.00%     83.58% # Class of committed instruction
system.cpu.commit.committedInstType_0::SimdShaSigma3            0      0.00%     83.58% # Class of committed instruction
system.cpu.commit.committedInstType_0::SimdPredAlu            0      0.00%     83.58% # Class of committed instruction
system.cpu.commit.committedInstType_0::MemRead       765249     10.87%     94.45% # Class of committed instruction
system.cpu.commit.committedInstType_0::MemWrite       343608      4.88%     99.33% # Class of committed instruction
system.cpu.commit.committedInstType_0::FloatMemRead        27758      0.39%     99.72% # Class of committed instruction
system.cpu.commit.committedInstType_0::FloatMemWrite        19597      0.28%    100.00% # Class of committed instruction
system.cpu.commit.committedInstType_0::IprAccess            0      0.00%    100.00% # Class of committed instruction
system.cpu.commit.committedInstType_0::InstPrefetch            0      0.00%    100.00% # Class of committed instruction
system.cpu.commit.committedInstType_0::total      7039733                       # Class of committed instruction
system.cpu.commit.commitEligibleSamples        399729                       # number cycles where commit BW limit reached
system.cpu.thread0.numInsts                   3827045                       # Number of Instructions committed
system.cpu.thread0.numOps                     7039733                       # Number of Ops committed
system.cpu.thread0.numMemRefs                       0                       # Number of Memory References
system.cpu.fetch.icacheStallCycles            1086499                       # Number of cycles fetch is stalled on an Icache miss
system.cpu.fetch.insts                        6637304                       # Number of instructions fetch has processed
system.cpu.fetch.branches                     1373916                       # Number of branches that fetch encountered
system.cpu.fetch.predictedBranches             789164                       # Number of branches that fetch has predicted taken
system.cpu.fetch.cycles                       2710298                       # Number of cycles fetch has run and was not squashing or blocked
system.cpu.fetch.squashCycles                  167664                       # Number of cycles fetch has spent squashing
system.cpu.fetch.miscStallCycles                  333                       # Number of cycles fetch has spent waiting on interrupts,or bad addresses, or out of MSHRs
system.cpu.fetch.pendingTrapStallCycles          2178                       # Number of stall cycles due to pending traps
system.cpu.fetch.pendingQuiesceStallCycles            2                       # Number of stall cycles due to pending quiesce instructions
system.cpu.fetch.icacheWaitRetryStallCycles           52                       # Number of stall cycles due to full MSHR
system.cpu.fetch.cacheLines                    915843                       # Number of cache lines fetched
system.cpu.fetch.icacheSquashes                 29902                       # Number of outstanding Icache misses that were squashed
system.cpu.fetch.nisnDist::samples            3883194                       # Number of instructions fetched each cycle (Total)
system.cpu.fetch.nisnDist::mean              3.044134                       # Number of instructions fetched each cycle (Total)
system.cpu.fetch.nisnDist::stdev             3.461302                       # Number of instructions fetched each cycle (Total)
system.cpu.fetch.nisnDist::underflows               0      0.00%      0.00% # Number of instructions fetched each cycle (Total)
system.cpu.fetch.nisnDist::0                  1939942     49.96%     49.96% # Number of instructions fetched each cycle (Total)
system.cpu.fetch.nisnDist::1                    84769      2.18%     52.14% # Number of instructions fetched each cycle (Total)
system.cpu.fetch.nisnDist::2                   150209      3.87%     56.01% # Number of instructions fetched each cycle (Total)
system.cpu.fetch.nisnDist::3                   165453      4.26%     60.27% # Number of instructions fetched each cycle (Total)
system.cpu.fetch.nisnDist::4                   121538      3.13%     63.40% # Number of instructions fetched each cycle (Total)
system.cpu.fetch.nisnDist::5                   151092      3.89%     67.29% # Number of instructions fetched each cycle (Total)
system.cpu.fetch.nisnDist::6                   137339      3.54%     70.83% # Number of instructions fetched each cycle (Total)
system.cpu.fetch.nisnDist::7                   189047      4.87%     75.70% # Number of instructions fetched each cycle (Total)
system.cpu.fetch.nisnDist::8                   943805     24.30%    100.00% # Number of instructions fetched each cycle (Total)
system.cpu.fetch.nisnDist::overflows                0      0.00%    100.00% # Number of instructions fetched each cycle (Total)
system.cpu.fetch.nisnDist::min_value                0                       # Number of instructions fetched each cycle (Total)
system.cpu.fetch.nisnDist::max_value                8                       # Number of instructions fetched each cycle (Total)
system.cpu.fetch.nisnDist::total              3883194                       # Number of instructions fetched each cycle (Total)
system.cpu.fetch.branchRate                  0.342055                       # Number of branch fetches per cycle
system.cpu.fetch.rate                        1.652444                       # Number of inst fetches per cycle

---------- End Simulation Statistics   ----------
